<?xml version='1.0' encoding='UTF-8'?>
<configuration xmlns:xsi="http://www.w3.org/2001/XMLSchema-instance" xsi:noNamespaceSchemaLocation="http://sumo.dlr.de/xsd/sumoConfiguration.xsd">
  <input>
    <net-file value="/Users/vanderbilt/Desktop/Research_2020/Traffic_Attack/flow/examples/exp_configs/templates/sumo/i24_subnetwork_fix_merges.net.xml"/>
    <route-files value="I-24_subnetwork_20210809-1704301628546670.914017.rou.xml"/>
    <additional-files value="I-24_subnetwork_20210809-1704301628546670.914017.add.xml"/>
    <gui-settings-file value="I-24_subnetwork_20210809-1704301628546670.914017.gui.cfg"/>
  </input>
  <time>
    <begin value="0"/>
  </time>
</configuration>
