<?xml version='1.0' encoding='UTF-8'?>
<routes xmlns:xsi="http://www.w3.org/2001/XMLSchema-instance" xsi:noNamespaceSchemaLocation="http://sumo.dlr.de/xsd/routes_file.xsd">
  <route id="routeEastbound_2_0" edges="Eastbound_3 Eastbound_4 Eastbound_5 Eastbound_6 Eastbound_7 Eastbound_8"/>
  <route id="routeEastbound_2_1" edges="Eastbound_3 Eastbound_4 Eastbound_5 Eastbound_6 Eastbound_7 Eastbound_Off_2"/>
  <route id="routeEastbound_On_1_0" edges="Eastbound_On_1 Eastbound_7 Eastbound_8"/>
  <route id="routeEastbound_7_0" edges="Eastbound_7 Eastbound_Off_2"/>
  <flow id="flow_00" route="routeEastbound_2_0" type="attacker_ACC" departLane="1" departSpeed="25.5" begin="1" end="86400" vehsPerHour="0.004320000000000001"/>
  <flow id="flow_001" route="routeEastbound_2_1" type="attacker_ACC" departLane="1" departSpeed="25.5" begin="1" end="86400" vehsPerHour="0.00048000000000000007"/>
  <flow id="flow_10" route="routeEastbound_2_0" type="benign_ACC" departLane="1" departSpeed="25.5" begin="1" end="86400" vehsPerHour="431.99568"/>
  <flow id="flow_101" route="routeEastbound_2_1" type="benign_ACC" departLane="1" departSpeed="25.5" begin="1" end="86400" vehsPerHour="47.999520000000004"/>
  <flow id="flow_20" route="routeEastbound_2_0" type="attacker_ACC" departLane="2" departSpeed="25.5" begin="1" end="86400" vehsPerHour="0.004320000000000001"/>
  <flow id="flow_201" route="routeEastbound_2_1" type="attacker_ACC" departLane="2" departSpeed="25.5" begin="1" end="86400" vehsPerHour="0.00048000000000000007"/>
  <flow id="flow_30" route="routeEastbound_2_0" type="benign_ACC" departLane="2" departSpeed="25.5" begin="1" end="86400" vehsPerHour="431.99568"/>
  <flow id="flow_301" route="routeEastbound_2_1" type="benign_ACC" departLane="2" departSpeed="25.5" begin="1" end="86400" vehsPerHour="47.999520000000004"/>
  <flow id="flow_40" route="routeEastbound_2_0" type="attacker_ACC" departLane="3" departSpeed="25.5" begin="1" end="86400" vehsPerHour="0.004320000000000001"/>
  <flow id="flow_401" route="routeEastbound_2_1" type="attacker_ACC" departLane="3" departSpeed="25.5" begin="1" end="86400" vehsPerHour="0.00048000000000000007"/>
  <flow id="flow_50" route="routeEastbound_2_0" type="benign_ACC" departLane="3" departSpeed="25.5" begin="1" end="86400" vehsPerHour="431.99568"/>
  <flow id="flow_501" route="routeEastbound_2_1" type="benign_ACC" departLane="3" departSpeed="25.5" begin="1" end="86400" vehsPerHour="47.999520000000004"/>
  <flow id="flow_60" route="routeEastbound_2_0" type="attacker_ACC" departLane="4" departSpeed="25.5" begin="1" end="86400" vehsPerHour="0.004320000000000001"/>
  <flow id="flow_601" route="routeEastbound_2_1" type="attacker_ACC" departLane="4" departSpeed="25.5" begin="1" end="86400" vehsPerHour="0.00048000000000000007"/>
  <flow id="flow_70" route="routeEastbound_2_0" type="benign_ACC" departLane="4" departSpeed="25.5" begin="1" end="86400" vehsPerHour="431.99568"/>
  <flow id="flow_701" route="routeEastbound_2_1" type="benign_ACC" departLane="4" departSpeed="25.5" begin="1" end="86400" vehsPerHour="47.999520000000004"/>
  <flow id="flow_80" route="routeEastbound_2_0" type="human_main" departLane="1" departSpeed="25.5" begin="1" end="86400" vehsPerHour="1728.0"/>
  <flow id="flow_801" route="routeEastbound_2_1" type="human_main" departLane="1" departSpeed="25.5" begin="1" end="86400" vehsPerHour="192.0"/>
  <flow id="flow_90" route="routeEastbound_2_0" type="human_main" departLane="2" departSpeed="25.5" begin="1" end="86400" vehsPerHour="1728.0"/>
  <flow id="flow_901" route="routeEastbound_2_1" type="human_main" departLane="2" departSpeed="25.5" begin="1" end="86400" vehsPerHour="192.0"/>
  <flow id="flow_100" route="routeEastbound_2_0" type="human_main" departLane="3" departSpeed="25.5" begin="1" end="86400" vehsPerHour="1728.0"/>
  <flow id="flow_1001" route="routeEastbound_2_1" type="human_main" departLane="3" departSpeed="25.5" begin="1" end="86400" vehsPerHour="192.0"/>
  <flow id="flow_110" route="routeEastbound_2_0" type="human_main" departLane="4" departSpeed="25.5" begin="1" end="86400" vehsPerHour="1728.0"/>
  <flow id="flow_1101" route="routeEastbound_2_1" type="human_main" departLane="4" departSpeed="25.5" begin="1" end="86400" vehsPerHour="192.0"/>
  <flow id="flow_120" route="routeEastbound_On_1_0" type="human_on_ramp" departLane="random" departSpeed="20" begin="1" end="86400" vehsPerHour="1000.0"/>
</routes>
