<?xml version='1.0' encoding='UTF-8'?>
<routes xmlns:xsi="http://www.w3.org/2001/XMLSchema-instance" xsi:noNamespaceSchemaLocation="http://sumo.dlr.de/xsd/routes_file.xsd">
  <route id="routeEastbound_3_0" edges="Eastbound_4 Eastbound_5 Eastbound_6 Eastbound_7 Eastbound_8"/>
  <route id="routeEastbound_3_1" edges="Eastbound_4 Eastbound_5 Eastbound_6 Eastbound_7 Eastbound_Off_2"/>
  <route id="routeEastbound_On_1_0" edges="Eastbound_On_1 Eastbound_7 Eastbound_8"/>
  <route id="routeEastbound_7_0" edges="Eastbound_7 Eastbound_Off_2"/>
  <flow id="flow_00" route="routeEastbound_3_0" type="attacker" departLane="0" departSpeed="25.5" begin="1" end="86400" vehsPerHour="280.8"/>
  <flow id="flow_001" route="routeEastbound_3_1" type="attacker" departLane="0" departSpeed="25.5" begin="1" end="86400" vehsPerHour="31.200000000000003"/>
  <flow id="flow_10" route="routeEastbound_3_0" type="attacker" departLane="1" departSpeed="25.5" begin="1" end="86400" vehsPerHour="280.8"/>
  <flow id="flow_101" route="routeEastbound_3_1" type="attacker" departLane="1" departSpeed="25.5" begin="1" end="86400" vehsPerHour="31.200000000000003"/>
  <flow id="flow_20" route="routeEastbound_3_0" type="attacker" departLane="2" departSpeed="25.5" begin="1" end="86400" vehsPerHour="280.8"/>
  <flow id="flow_201" route="routeEastbound_3_1" type="attacker" departLane="2" departSpeed="25.5" begin="1" end="86400" vehsPerHour="31.200000000000003"/>
  <flow id="flow_30" route="routeEastbound_3_0" type="attacker" departLane="3" departSpeed="25.5" begin="1" end="86400" vehsPerHour="280.8"/>
  <flow id="flow_301" route="routeEastbound_3_1" type="attacker" departLane="3" departSpeed="25.5" begin="1" end="86400" vehsPerHour="31.200000000000003"/>
  <flow id="flow_40" route="routeEastbound_3_0" type="human_main" departLane="0" departSpeed="25.5" begin="1" end="86400" vehsPerHour="1879.2"/>
  <flow id="flow_401" route="routeEastbound_3_1" type="human_main" departLane="0" departSpeed="25.5" begin="1" end="86400" vehsPerHour="208.8"/>
  <flow id="flow_50" route="routeEastbound_3_0" type="human_main" departLane="1" departSpeed="25.5" begin="1" end="86400" vehsPerHour="1879.2"/>
  <flow id="flow_501" route="routeEastbound_3_1" type="human_main" departLane="1" departSpeed="25.5" begin="1" end="86400" vehsPerHour="208.8"/>
  <flow id="flow_60" route="routeEastbound_3_0" type="human_main" departLane="2" departSpeed="25.5" begin="1" end="86400" vehsPerHour="1879.2"/>
  <flow id="flow_601" route="routeEastbound_3_1" type="human_main" departLane="2" departSpeed="25.5" begin="1" end="86400" vehsPerHour="208.8"/>
  <flow id="flow_70" route="routeEastbound_3_0" type="human_main" departLane="3" departSpeed="25.5" begin="1" end="86400" vehsPerHour="1879.2"/>
  <flow id="flow_701" route="routeEastbound_3_1" type="human_main" departLane="3" departSpeed="25.5" begin="1" end="86400" vehsPerHour="208.8"/>
  <flow id="flow_80" route="routeEastbound_On_1_0" type="human_on_ramp" departLane="random" departSpeed="20" begin="1" end="86400" vehsPerHour="1000.0"/>
</routes>
