<?xml version="1.0" encoding="UTF-8"?>

<!-- generated on Fri Feb 19 18:38:13 2021 by Eclipse SUMO netconvert Version 1.6.0
<configuration xmlns:xsi="http://www.w3.org/2001/XMLSchema-instance" xsi:noNamespaceSchemaLocation="http://sumo.dlr.de/xsd/netconvertConfiguration.xsd">

    <input>
        <node-files value="/Users/vanderbilt/Desktop/Research_2020/Traffic_Attack/flow/flow/core/kernel/network/debug/net/ring_20210219-1838121613781492.3693068.nod.xml"/>
        <edge-files value="/Users/vanderbilt/Desktop/Research_2020/Traffic_Attack/flow/flow/core/kernel/network/debug/net/ring_20210219-1838121613781492.3693068.edg.xml"/>
        <type-files value="/Users/vanderbilt/Desktop/Research_2020/Traffic_Attack/flow/flow/core/kernel/network/debug/net/ring_20210219-1838121613781492.3693068.typ.xml"/>
    </input>

    <output>
        <output-file value="/Users/vanderbilt/Desktop/Research_2020/Traffic_Attack/flow/flow/core/kernel/network/debug/cfg/ring_20210219-1838121613781492.3693068.net.xml"/>
    </output>

    <junctions>
        <no-internal-links value="false"/>
        <no-turnarounds value="true"/>
    </junctions>

    <report>
        <aggregate-warnings value="5"/>
    </report>

</configuration>
-->

<net version="1.6" junctionCornerDetail="5" limitTurnSpeed="5.50" xmlns:xsi="http://www.w3.org/2001/XMLSchema-instance" xsi:noNamespaceSchemaLocation="http://sumo.dlr.de/xsd/net_file.xsd">

    <location netOffset="493.38,493.38" convBoundary="0.00,0.00,986.76,986.76" origBoundary="-493.38,-493.38,493.38,493.38" projParameter="!"/>

    <type id="edgeType" numLanes="1" speed="30.00"/>

    <edge id=":bottom_0" function="internal">
        <lane id=":bottom_0_0" index="0" speed="30.00" length="0.10" shape="493.35,-1.60 493.41,-1.60"/>
    </edge>
    <edge id=":left_0" function="internal">
        <lane id=":left_0_0" index="0" speed="30.00" length="0.10" shape="-1.60,493.41 -1.60,493.35"/>
    </edge>
    <edge id=":right_0" function="internal">
        <lane id=":right_0_0" index="0" speed="30.00" length="0.10" shape="988.36,493.35 988.36,493.41"/>
    </edge>
    <edge id=":top_0" function="internal">
        <lane id=":top_0_0" index="0" speed="30.00" length="0.10" shape="493.41,988.36 493.35,988.36"/>
    </edge>

    <edge id="bottom" from="bottom" to="right" priority="-1" type="edgeType" length="775.00" shape="493.38,0.00 513.25,0.40 533.08,1.60 552.85,3.60 572.52,6.39 592.07,9.97 611.45,14.34 630.65,19.48 649.62,25.39 668.34,32.06 686.77,39.48 704.89,47.64 722.67,56.51 740.07,66.10 757.07,76.38 773.65,87.34 789.77,98.95 805.42,111.21 820.55,124.08 835.16,137.55 849.21,151.60 862.68,166.21 875.55,181.34 887.81,196.99 899.42,213.11 910.38,229.69 920.66,246.69 930.25,264.09 939.12,281.87 947.28,299.99 954.70,318.42 961.37,337.14 967.28,356.11 972.42,375.31 976.79,394.69 980.37,414.24 983.16,433.91 985.16,453.68 986.36,473.51 986.76,493.38">
        <lane id="bottom_0" index="0" speed="30.00" length="775.00" shape="493.41,-1.60 513.31,-1.20 533.21,0.01 553.04,2.01 572.78,4.81 592.39,8.40 611.83,12.79 631.10,17.94 650.13,23.87 668.91,30.56 687.40,38.01 705.58,46.19 723.41,55.09 740.87,64.71 757.93,75.03 774.56,86.02 790.73,97.67 806.43,109.97 821.61,122.88 836.27,136.40 850.36,150.49 863.88,165.15 876.79,180.33 889.09,196.03 900.74,212.20 911.73,228.83 922.05,245.89 931.67,263.35 940.57,281.18 948.75,299.36 956.20,317.85 962.89,336.63 968.82,355.67 973.97,374.93 978.36,394.37 981.95,413.98 984.75,433.72 986.76,453.55 987.96,473.45 988.36,493.35"/>
    </edge>
    <edge id="left" from="left" to="bottom" priority="-1" type="edgeType" length="775.00" shape="0.00,493.38 0.40,473.51 1.60,453.68 3.60,433.91 6.39,414.24 9.97,394.69 14.34,375.31 19.48,356.11 25.39,337.14 32.06,318.42 39.48,299.99 47.64,281.87 56.51,264.09 66.10,246.69 76.38,229.69 87.34,213.11 98.95,196.99 111.21,181.34 124.08,166.21 137.55,151.60 151.60,137.55 166.21,124.08 181.34,111.21 196.99,98.95 213.11,87.34 229.69,76.38 246.69,66.10 264.09,56.51 281.87,47.64 299.99,39.48 318.42,32.06 337.14,25.39 356.11,19.48 375.31,14.34 394.69,9.97 414.24,6.39 433.91,3.60 453.68,1.60 473.51,0.40 493.38,0.00">
        <lane id="left_0" index="0" speed="30.00" length="775.00" shape="-1.60,493.35 -1.20,473.45 0.01,453.55 2.01,433.72 4.81,413.98 8.40,394.37 12.79,374.93 17.94,355.67 23.87,336.63 30.56,317.85 38.01,299.36 46.19,281.18 55.09,263.35 64.71,245.89 75.03,228.83 86.02,212.20 97.67,196.03 109.97,180.33 122.88,165.15 136.40,150.49 150.49,136.40 165.15,122.88 180.33,109.97 196.03,97.67 212.20,86.02 228.83,75.03 245.89,64.71 263.35,55.09 281.18,46.19 299.36,38.01 317.85,30.56 336.63,23.87 355.67,17.94 374.93,12.79 394.37,8.40 413.98,4.81 433.72,2.01 453.55,0.01 473.45,-1.20 493.35,-1.60"/>
    </edge>
    <edge id="right" from="right" to="top" priority="-1" type="edgeType" length="775.00" shape="986.76,493.38 986.36,513.25 985.16,533.08 983.16,552.85 980.37,572.52 976.79,592.07 972.42,611.45 967.28,630.65 961.37,649.62 954.70,668.34 947.28,686.77 939.12,704.89 930.25,722.67 920.66,740.07 910.38,757.07 899.42,773.65 887.81,789.77 875.55,805.42 862.68,820.55 849.21,835.16 835.16,849.21 820.55,862.68 805.42,875.55 789.77,887.81 773.65,899.42 757.07,910.38 740.07,920.66 722.67,930.25 704.89,939.12 686.77,947.28 668.34,954.70 649.62,961.37 630.65,967.28 611.45,972.42 592.07,976.79 572.52,980.37 552.85,983.16 533.08,985.16 513.25,986.36 493.38,986.76">
        <lane id="right_0" index="0" speed="30.00" length="775.00" shape="988.36,493.41 987.96,513.31 986.76,533.21 984.75,553.04 981.95,572.78 978.36,592.39 973.97,611.83 968.82,631.10 962.89,650.13 956.20,668.91 948.75,687.40 940.57,705.58 931.67,723.41 922.05,740.87 911.73,757.93 900.74,774.56 889.09,790.73 876.79,806.43 863.88,821.61 850.36,836.27 836.27,850.36 821.61,863.88 806.43,876.79 790.73,889.09 774.56,900.74 757.93,911.73 740.87,922.05 723.41,931.67 705.58,940.57 687.40,948.75 668.91,956.20 650.13,962.89 631.10,968.82 611.83,973.97 592.39,978.36 572.78,981.95 553.04,984.75 533.21,986.76 513.31,987.96 493.41,988.36"/>
    </edge>
    <edge id="top" from="top" to="left" priority="-1" type="edgeType" length="775.00" shape="493.38,986.76 473.51,986.36 453.68,985.16 433.91,983.16 414.24,980.37 394.69,976.79 375.31,972.42 356.11,967.28 337.14,961.37 318.42,954.70 299.99,947.28 281.87,939.12 264.09,930.25 246.69,920.66 229.69,910.38 213.11,899.42 196.99,887.81 181.34,875.55 166.21,862.68 151.60,849.21 137.55,835.16 124.08,820.55 111.21,805.42 98.95,789.77 87.34,773.65 76.38,757.07 66.10,740.07 56.51,722.67 47.64,704.89 39.48,686.77 32.06,668.34 25.39,649.62 19.48,630.65 14.34,611.45 9.97,592.07 6.39,572.52 3.60,552.85 1.60,533.08 0.40,513.25 0.00,493.38">
        <lane id="top_0" index="0" speed="30.00" length="775.00" shape="493.35,988.36 473.45,987.96 453.55,986.76 433.72,984.75 413.98,981.95 394.37,978.36 374.93,973.97 355.67,968.82 336.63,962.89 317.85,956.20 299.36,948.75 281.18,940.57 263.35,931.67 245.89,922.05 228.83,911.73 212.20,900.74 196.03,889.09 180.33,876.79 165.15,863.88 150.49,850.36 136.40,836.27 122.88,821.61 109.97,806.43 97.67,790.73 86.02,774.56 75.03,757.93 64.71,740.87 55.09,723.41 46.19,705.58 38.01,687.40 30.56,668.91 23.87,650.13 17.94,631.10 12.79,611.83 8.40,592.39 4.81,572.78 2.01,553.04 0.01,533.21 -1.20,513.31 -1.60,493.41"/>
    </edge>

    <junction id="bottom" type="priority" x="493.38" y="0.00" incLanes="left_0" intLanes=":bottom_0_0" shape="493.46,0.00 493.52,-3.20 493.24,-3.20 493.30,0.00">
        <request index="0" response="0" foes="0" cont="0"/>
    </junction>
    <junction id="left" type="priority" x="0.00" y="493.38" incLanes="top_0" intLanes=":left_0_0" shape="-3.20,493.52 0.00,493.46 0.00,493.30 -3.20,493.24">
        <request index="0" response="0" foes="0" cont="0"/>
    </junction>
    <junction id="right" type="priority" x="986.76" y="493.38" incLanes="bottom_0" intLanes=":right_0_0" shape="989.96,493.24 986.76,493.30 986.76,493.46 989.96,493.52">
        <request index="0" response="0" foes="0" cont="0"/>
    </junction>
    <junction id="top" type="priority" x="493.38" y="986.76" incLanes="right_0" intLanes=":top_0_0" shape="493.52,989.96 493.46,986.76 493.30,986.76 493.24,989.96">
        <request index="0" response="0" foes="0" cont="0"/>
    </junction>

    <connection from="bottom" to="right" fromLane="0" toLane="0" via=":right_0_0" dir="s" state="M"/>
    <connection from="left" to="bottom" fromLane="0" toLane="0" via=":bottom_0_0" dir="s" state="M"/>
    <connection from="right" to="top" fromLane="0" toLane="0" via=":top_0_0" dir="s" state="M"/>
    <connection from="top" to="left" fromLane="0" toLane="0" via=":left_0_0" dir="s" state="M"/>

    <connection from=":bottom_0" to="bottom" fromLane="0" toLane="0" dir="s" state="M"/>
    <connection from=":left_0" to="left" fromLane="0" toLane="0" dir="s" state="M"/>
    <connection from=":right_0" to="right" fromLane="0" toLane="0" dir="s" state="M"/>
    <connection from=":top_0" to="top" fromLane="0" toLane="0" dir="s" state="M"/>

</net>
