<?xml version="1.0" encoding="UTF-8"?>

<!-- generated on Fri Feb  5 18:38:24 2021 by Eclipse SUMO netconvert Version 1.6.0
<configuration xmlns:xsi="http://www.w3.org/2001/XMLSchema-instance" xsi:noNamespaceSchemaLocation="http://sumo.dlr.de/xsd/netconvertConfiguration.xsd">

    <input>
        <node-files value="/Users/vanderbilt/Desktop/Research_2020/Traffic_Attack/flow/flow/core/kernel/network/debug/net/ring_20210205-1838221612571902.816865.nod.xml"/>
        <edge-files value="/Users/vanderbilt/Desktop/Research_2020/Traffic_Attack/flow/flow/core/kernel/network/debug/net/ring_20210205-1838221612571902.816865.edg.xml"/>
        <type-files value="/Users/vanderbilt/Desktop/Research_2020/Traffic_Attack/flow/flow/core/kernel/network/debug/net/ring_20210205-1838221612571902.816865.typ.xml"/>
    </input>

    <output>
        <output-file value="/Users/vanderbilt/Desktop/Research_2020/Traffic_Attack/flow/flow/core/kernel/network/debug/cfg/ring_20210205-1838221612571902.816865.net.xml"/>
    </output>

    <junctions>
        <no-internal-links value="false"/>
        <no-turnarounds value="true"/>
    </junctions>

    <report>
        <aggregate-warnings value="5"/>
    </report>

</configuration>
-->

<net version="1.6" junctionCornerDetail="5" limitTurnSpeed="5.50" xmlns:xsi="http://www.w3.org/2001/XMLSchema-instance" xsi:noNamespaceSchemaLocation="http://sumo.dlr.de/xsd/net_file.xsd">

    <location netOffset="541.13,541.13" convBoundary="0.00,0.00,1082.26,1082.26" origBoundary="-541.13,-541.13,541.13,541.13" projParameter="!"/>

    <type id="edgeType" numLanes="1" speed="30.00"/>

    <edge id=":bottom_0" function="internal">
        <lane id=":bottom_0_0" index="0" speed="30.00" length="0.10" shape="541.10,-1.60 541.16,-1.60"/>
    </edge>
    <edge id=":left_0" function="internal">
        <lane id=":left_0_0" index="0" speed="30.00" length="0.10" shape="-1.60,541.16 -1.60,541.10"/>
    </edge>
    <edge id=":right_0" function="internal">
        <lane id=":right_0_0" index="0" speed="30.00" length="0.10" shape="1083.86,541.10 1083.86,541.16"/>
    </edge>
    <edge id=":top_0" function="internal">
        <lane id=":top_0_0" index="0" speed="30.00" length="0.10" shape="541.16,1083.86 541.10,1083.86"/>
    </edge>

    <edge id="bottom" from="bottom" to="right" priority="-1" type="edgeType" length="850.00" shape="541.13,0.00 562.92,0.44 584.67,1.76 606.36,3.95 627.93,7.01 649.37,10.94 670.63,15.73 691.68,21.37 712.49,27.85 733.02,35.17 753.23,43.30 773.11,52.25 792.60,61.99 811.69,72.50 830.34,83.77 848.53,95.79 866.21,108.53 883.36,121.97 899.96,136.09 915.98,150.87 931.39,166.28 946.17,182.30 960.29,198.90 973.73,216.05 986.47,233.73 998.49,251.92 1009.76,270.57 1020.27,289.66 1030.01,309.15 1038.96,329.03 1047.09,349.24 1054.41,369.77 1060.89,390.58 1066.53,411.63 1071.32,432.89 1075.25,454.33 1078.31,475.90 1080.50,497.59 1081.82,519.34 1082.26,541.13">
        <lane id="bottom_0" index="0" speed="30.00" length="850.00" shape="541.16,-1.60 562.98,-1.16 584.80,0.16 606.55,2.36 628.19,5.43 649.69,9.37 671.01,14.18 692.13,19.83 713.00,26.33 733.59,33.67 753.86,41.83 773.80,50.80 793.34,60.57 812.49,71.11 831.20,82.42 849.44,94.47 867.17,107.25 884.37,120.73 901.02,134.89 917.09,149.72 932.54,165.17 947.37,181.24 961.53,197.89 975.01,215.09 987.79,232.82 999.84,251.06 1011.15,269.77 1021.69,288.92 1031.46,308.46 1040.43,328.40 1048.59,348.67 1055.93,369.26 1062.43,390.13 1068.08,411.25 1072.89,432.57 1076.83,454.07 1079.90,475.71 1082.10,497.46 1083.42,519.28 1083.86,541.10"/>
    </edge>
    <edge id="left" from="left" to="bottom" priority="-1" type="edgeType" length="850.00" shape="0.00,541.13 0.44,519.34 1.76,497.59 3.95,475.90 7.01,454.33 10.94,432.89 15.73,411.63 21.37,390.58 27.85,369.77 35.17,349.24 43.30,329.03 52.25,309.15 61.99,289.66 72.50,270.57 83.77,251.92 95.79,233.73 108.53,216.05 121.97,198.90 136.09,182.30 150.87,166.28 166.28,150.87 182.30,136.09 198.90,121.97 216.05,108.53 233.73,95.79 251.92,83.77 270.57,72.50 289.66,61.99 309.15,52.25 329.03,43.30 349.24,35.17 369.77,27.85 390.58,21.37 411.63,15.73 432.89,10.94 454.33,7.01 475.90,3.95 497.59,1.76 519.34,0.44 541.13,0.00">
        <lane id="left_0" index="0" speed="30.00" length="850.00" shape="-1.60,541.10 -1.16,519.28 0.16,497.46 2.36,475.71 5.43,454.07 9.37,432.57 14.18,411.25 19.83,390.13 26.33,369.26 33.67,348.67 41.83,328.40 50.80,308.46 60.57,288.92 71.11,269.77 82.42,251.06 94.47,232.82 107.25,215.09 120.73,197.89 134.89,181.24 149.72,165.17 165.17,149.72 181.24,134.89 197.89,120.73 215.09,107.25 232.82,94.47 251.06,82.42 269.77,71.11 288.92,60.57 308.46,50.80 328.40,41.83 348.67,33.67 369.26,26.33 390.13,19.83 411.25,14.18 432.57,9.37 454.07,5.43 475.71,2.36 497.46,0.16 519.28,-1.16 541.10,-1.60"/>
    </edge>
    <edge id="right" from="right" to="top" priority="-1" type="edgeType" length="850.00" shape="1082.26,541.13 1081.82,562.92 1080.50,584.67 1078.31,606.36 1075.25,627.93 1071.32,649.37 1066.53,670.63 1060.89,691.68 1054.41,712.49 1047.09,733.02 1038.96,753.23 1030.01,773.11 1020.27,792.60 1009.76,811.69 998.49,830.34 986.47,848.53 973.73,866.21 960.29,883.36 946.17,899.96 931.39,915.98 915.98,931.39 899.96,946.17 883.36,960.29 866.21,973.73 848.53,986.47 830.34,998.49 811.69,1009.76 792.60,1020.27 773.11,1030.01 753.23,1038.96 733.02,1047.09 712.49,1054.41 691.68,1060.89 670.63,1066.53 649.37,1071.32 627.93,1075.25 606.36,1078.31 584.67,1080.50 562.92,1081.82 541.13,1082.26">
        <lane id="right_0" index="0" speed="30.00" length="850.00" shape="1083.86,541.16 1083.42,562.98 1082.10,584.80 1079.90,606.55 1076.83,628.19 1072.89,649.69 1068.08,671.01 1062.43,692.13 1055.93,713.00 1048.59,733.59 1040.43,753.86 1031.46,773.80 1021.69,793.34 1011.15,812.49 999.84,831.20 987.79,849.44 975.01,867.17 961.53,884.37 947.37,901.02 932.54,917.09 917.09,932.54 901.02,947.37 884.37,961.53 867.17,975.01 849.44,987.79 831.20,999.84 812.49,1011.15 793.34,1021.69 773.80,1031.46 753.86,1040.43 733.59,1048.59 713.00,1055.93 692.13,1062.43 671.01,1068.08 649.69,1072.89 628.19,1076.83 606.55,1079.90 584.80,1082.10 562.98,1083.42 541.16,1083.86"/>
    </edge>
    <edge id="top" from="top" to="left" priority="-1" type="edgeType" length="850.00" shape="541.13,1082.26 519.34,1081.82 497.59,1080.50 475.90,1078.31 454.33,1075.25 432.89,1071.32 411.63,1066.53 390.58,1060.89 369.77,1054.41 349.24,1047.09 329.03,1038.96 309.15,1030.01 289.66,1020.27 270.57,1009.76 251.92,998.49 233.73,986.47 216.05,973.73 198.90,960.29 182.30,946.17 166.28,931.39 150.87,915.98 136.09,899.96 121.97,883.36 108.53,866.21 95.79,848.53 83.77,830.34 72.50,811.69 61.99,792.60 52.25,773.11 43.30,753.23 35.17,733.02 27.85,712.49 21.37,691.68 15.73,670.63 10.94,649.37 7.01,627.93 3.95,606.36 1.76,584.67 0.44,562.92 0.00,541.13">
        <lane id="top_0" index="0" speed="30.00" length="850.00" shape="541.10,1083.86 519.28,1083.42 497.46,1082.10 475.71,1079.90 454.07,1076.83 432.57,1072.89 411.25,1068.08 390.13,1062.43 369.26,1055.93 348.67,1048.59 328.40,1040.43 308.46,1031.46 288.92,1021.69 269.77,1011.15 251.06,999.84 232.82,987.79 215.09,975.01 197.89,961.53 181.24,947.37 165.17,932.54 149.72,917.09 134.89,901.02 120.73,884.37 107.25,867.17 94.47,849.44 82.42,831.20 71.11,812.49 60.57,793.34 50.80,773.80 41.83,753.86 33.67,733.59 26.33,713.00 19.83,692.13 14.18,671.01 9.37,649.69 5.43,628.19 2.36,606.55 0.16,584.80 -1.16,562.98 -1.60,541.16"/>
    </edge>

    <junction id="bottom" type="priority" x="541.13" y="0.00" incLanes="left_0" intLanes=":bottom_0_0" shape="541.21,0.00 541.27,-3.20 540.99,-3.20 541.05,0.00">
        <request index="0" response="0" foes="0" cont="0"/>
    </junction>
    <junction id="left" type="priority" x="0.00" y="541.13" incLanes="top_0" intLanes=":left_0_0" shape="-3.20,541.27 0.00,541.21 0.00,541.05 -3.20,540.99">
        <request index="0" response="0" foes="0" cont="0"/>
    </junction>
    <junction id="right" type="priority" x="1082.26" y="541.13" incLanes="bottom_0" intLanes=":right_0_0" shape="1085.46,540.99 1082.26,541.05 1082.26,541.21 1085.46,541.27">
        <request index="0" response="0" foes="0" cont="0"/>
    </junction>
    <junction id="top" type="priority" x="541.13" y="1082.26" incLanes="right_0" intLanes=":top_0_0" shape="541.27,1085.46 541.21,1082.26 541.05,1082.26 540.99,1085.46">
        <request index="0" response="0" foes="0" cont="0"/>
    </junction>

    <connection from="bottom" to="right" fromLane="0" toLane="0" via=":right_0_0" dir="s" state="M"/>
    <connection from="left" to="bottom" fromLane="0" toLane="0" via=":bottom_0_0" dir="s" state="M"/>
    <connection from="right" to="top" fromLane="0" toLane="0" via=":top_0_0" dir="s" state="M"/>
    <connection from="top" to="left" fromLane="0" toLane="0" via=":left_0_0" dir="s" state="M"/>

    <connection from=":bottom_0" to="bottom" fromLane="0" toLane="0" dir="s" state="M"/>
    <connection from=":left_0" to="left" fromLane="0" toLane="0" dir="s" state="M"/>
    <connection from=":right_0" to="right" fromLane="0" toLane="0" dir="s" state="M"/>
    <connection from=":top_0" to="top" fromLane="0" toLane="0" dir="s" state="M"/>

</net>
