<?xml version="1.0" encoding="UTF-8"?>

<!-- generated on Sat Feb 27 09:58:26 2021 by Eclipse SUMO netconvert Version 1.6.0
<configuration xmlns:xsi="http://www.w3.org/2001/XMLSchema-instance" xsi:noNamespaceSchemaLocation="http://sumo.dlr.de/xsd/netconvertConfiguration.xsd">

    <input>
        <node-files value="/Users/vanderbilt/Desktop/Research_2020/Traffic_Attack/flow/flow/core/kernel/network/debug/net/ring_20210227-0958261614441506.134848.nod.xml"/>
        <edge-files value="/Users/vanderbilt/Desktop/Research_2020/Traffic_Attack/flow/flow/core/kernel/network/debug/net/ring_20210227-0958261614441506.134848.edg.xml"/>
        <type-files value="/Users/vanderbilt/Desktop/Research_2020/Traffic_Attack/flow/flow/core/kernel/network/debug/net/ring_20210227-0958261614441506.134848.typ.xml"/>
    </input>

    <output>
        <output-file value="/Users/vanderbilt/Desktop/Research_2020/Traffic_Attack/flow/flow/core/kernel/network/debug/cfg/ring_20210227-0958261614441506.134848.net.xml"/>
    </output>

    <junctions>
        <no-internal-links value="false"/>
        <no-turnarounds value="true"/>
    </junctions>

    <report>
        <aggregate-warnings value="5"/>
    </report>

</configuration>
-->

<net version="1.6" junctionCornerDetail="5" limitTurnSpeed="5.50" xmlns:xsi="http://www.w3.org/2001/XMLSchema-instance" xsi:noNamespaceSchemaLocation="http://sumo.dlr.de/xsd/net_file.xsd">

    <location netOffset="127.32,127.32" convBoundary="0.00,0.00,254.65,254.65" origBoundary="-127.32,-127.32,127.32,127.32" projParameter="!"/>

    <type id="edgeType" numLanes="1" speed="30.00"/>

    <edge id=":bottom_0" function="internal">
        <lane id=":bottom_0_0" index="0" speed="30.00" length="0.10" shape="127.29,-1.60 127.36,-1.60"/>
    </edge>
    <edge id=":left_0" function="internal">
        <lane id=":left_0_0" index="0" speed="30.00" length="0.10" shape="-1.60,127.36 -1.60,127.29"/>
    </edge>
    <edge id=":right_0" function="internal">
        <lane id=":right_0_0" index="0" speed="30.00" length="0.10" shape="256.24,127.29 256.24,127.36"/>
    </edge>
    <edge id=":top_0" function="internal">
        <lane id=":top_0_0" index="0" speed="30.00" length="0.10" shape="127.36,256.24 127.29,256.24"/>
    </edge>

    <edge id="bottom" from="bottom" to="right" priority="-1" type="edgeType" length="200.00" shape="127.32,0.00 132.45,0.10 137.57,0.41 142.67,0.92 147.74,1.64 152.79,2.57 157.79,3.70 162.74,5.02 167.64,6.55 172.47,8.27 177.23,10.18 181.90,12.29 186.49,14.58 190.98,17.05 195.37,19.71 199.65,22.53 203.81,25.53 207.85,28.69 211.75,32.02 215.52,35.49 219.15,39.12 222.62,42.89 225.95,46.79 229.11,50.83 232.11,54.99 234.93,59.27 237.59,63.66 240.06,68.15 242.35,72.74 244.46,77.41 246.37,82.17 248.09,87.00 249.62,91.90 250.94,96.85 252.07,101.85 253.00,106.90 253.72,111.97 254.23,117.07 254.54,122.19 254.64,127.32">
        <lane id="bottom_0" index="0" speed="30.00" length="200.00" shape="127.36,-1.60 132.52,-1.50 137.70,-1.18 142.87,-0.66 148.00,0.06 153.12,1.01 158.18,2.15 163.19,3.49 168.15,5.04 173.04,6.78 177.86,8.71 182.59,10.85 187.24,13.17 191.78,15.67 196.23,18.36 200.56,21.22 204.78,24.25 208.87,27.45 212.82,30.83 216.63,34.34 220.31,38.02 223.82,41.83 227.19,45.78 230.39,49.87 233.43,54.09 236.29,58.42 238.98,62.86 241.48,67.41 243.80,72.06 245.94,76.79 247.87,81.61 249.61,86.50 251.16,91.46 252.50,96.47 253.64,101.53 254.58,106.65 255.31,111.78 255.83,116.95 256.14,122.13 256.24,127.29"/>
    </edge>
    <edge id="left" from="left" to="bottom" priority="-1" type="edgeType" length="200.00" shape="0.00,127.32 0.10,122.19 0.41,117.07 0.92,111.97 1.64,106.90 2.57,101.85 3.70,96.85 5.02,91.90 6.55,87.00 8.27,82.17 10.18,77.41 12.29,72.74 14.58,68.15 17.05,63.66 19.71,59.27 22.53,54.99 25.53,50.83 28.69,46.79 32.02,42.89 35.49,39.12 39.12,35.49 42.89,32.02 46.79,28.69 50.83,25.53 54.99,22.53 59.27,19.71 63.66,17.05 68.15,14.58 72.74,12.29 77.41,10.18 82.17,8.27 87.00,6.55 91.90,5.02 96.85,3.70 101.85,2.57 106.90,1.64 111.97,0.92 117.07,0.41 122.19,0.10 127.32,0.00">
        <lane id="left_0" index="0" speed="30.00" length="200.00" shape="-1.60,127.29 -1.50,122.13 -1.18,116.95 -0.66,111.78 0.06,106.65 1.01,101.53 2.15,96.47 3.49,91.46 5.04,86.50 6.78,81.61 8.71,76.79 10.85,72.06 13.17,67.41 15.67,62.86 18.36,58.42 21.22,54.09 24.25,49.87 27.45,45.78 30.83,41.83 34.34,38.02 38.02,34.34 41.83,30.83 45.78,27.45 49.87,24.25 54.09,21.22 58.42,18.36 62.86,15.67 67.41,13.17 72.06,10.85 76.79,8.71 81.61,6.78 86.50,5.04 91.46,3.49 96.47,2.15 101.53,1.01 106.65,0.06 111.78,-0.66 116.95,-1.18 122.13,-1.50 127.29,-1.60"/>
    </edge>
    <edge id="right" from="right" to="top" priority="-1" type="edgeType" length="200.00" shape="254.64,127.32 254.54,132.45 254.23,137.57 253.72,142.67 253.00,147.74 252.07,152.79 250.94,157.79 249.62,162.74 248.09,167.64 246.37,172.47 244.46,177.23 242.35,181.90 240.06,186.49 237.59,190.98 234.93,195.37 232.11,199.65 229.11,203.81 225.95,207.85 222.62,211.75 219.15,215.52 215.52,219.15 211.75,222.62 207.85,225.95 203.81,229.11 199.65,232.11 195.37,234.93 190.98,237.59 186.49,240.06 181.90,242.35 177.23,244.46 172.47,246.37 167.64,248.09 162.74,249.62 157.79,250.94 152.79,252.07 147.74,253.00 142.67,253.72 137.57,254.23 132.45,254.54 127.32,254.64">
        <lane id="right_0" index="0" speed="30.00" length="200.00" shape="256.24,127.36 256.14,132.52 255.83,137.70 255.31,142.87 254.58,148.00 253.64,153.12 252.50,158.18 251.16,163.19 249.61,168.15 247.87,173.04 245.94,177.86 243.80,182.59 241.48,187.24 238.98,191.78 236.29,196.23 233.43,200.56 230.39,204.78 227.19,208.87 223.82,212.82 220.31,216.63 216.63,220.31 212.82,223.82 208.87,227.19 204.78,230.39 200.56,233.43 196.23,236.29 191.78,238.98 187.24,241.48 182.59,243.80 177.86,245.94 173.04,247.87 168.15,249.61 163.19,251.16 158.18,252.50 153.12,253.64 148.00,254.58 142.87,255.31 137.70,255.83 132.52,256.14 127.36,256.24"/>
    </edge>
    <edge id="top" from="top" to="left" priority="-1" type="edgeType" length="200.00" shape="127.32,254.64 122.19,254.54 117.07,254.23 111.97,253.72 106.90,253.00 101.85,252.07 96.85,250.94 91.90,249.62 87.00,248.09 82.17,246.37 77.41,244.46 72.74,242.35 68.15,240.06 63.66,237.59 59.27,234.93 54.99,232.11 50.83,229.11 46.79,225.95 42.89,222.62 39.12,219.15 35.49,215.52 32.02,211.75 28.69,207.85 25.53,203.81 22.53,199.65 19.71,195.37 17.05,190.98 14.58,186.49 12.29,181.90 10.18,177.23 8.27,172.47 6.55,167.64 5.02,162.74 3.70,157.79 2.57,152.79 1.64,147.74 0.92,142.67 0.41,137.57 0.10,132.45 0.00,127.32">
        <lane id="top_0" index="0" speed="30.00" length="200.00" shape="127.29,256.24 122.13,256.14 116.95,255.83 111.78,255.31 106.65,254.58 101.53,253.64 96.47,252.50 91.46,251.16 86.50,249.61 81.61,247.87 76.79,245.94 72.06,243.80 67.41,241.48 62.86,238.98 58.42,236.29 54.09,233.43 49.87,230.39 45.78,227.19 41.83,223.82 38.02,220.31 34.34,216.63 30.83,212.82 27.45,208.87 24.25,204.78 21.22,200.56 18.36,196.23 15.67,191.78 13.17,187.24 10.85,182.59 8.71,177.86 6.78,173.04 5.04,168.15 3.49,163.19 2.15,158.18 1.01,153.12 0.06,148.00 -0.66,142.87 -1.18,137.70 -1.50,132.52 -1.60,127.36"/>
    </edge>

    <junction id="bottom" type="priority" x="127.32" y="0.00" incLanes="left_0" intLanes=":bottom_0_0" shape="127.40,0.01 127.47,-3.19 127.18,-3.19 127.24,0.01">
        <request index="0" response="0" foes="0" cont="0"/>
    </junction>
    <junction id="left" type="priority" x="0.00" y="127.32" incLanes="top_0" intLanes=":left_0_0" shape="-3.19,127.47 0.01,127.40 0.01,127.24 -3.19,127.18">
        <request index="0" response="0" foes="0" cont="0"/>
    </junction>
    <junction id="right" type="priority" x="254.65" y="127.32" incLanes="bottom_0" intLanes=":right_0_0" shape="257.84,127.18 254.64,127.24 254.64,127.40 257.84,127.47">
        <request index="0" response="0" foes="0" cont="0"/>
    </junction>
    <junction id="top" type="priority" x="127.32" y="254.65" incLanes="right_0" intLanes=":top_0_0" shape="127.47,257.84 127.40,254.64 127.24,254.64 127.18,257.84">
        <request index="0" response="0" foes="0" cont="0"/>
    </junction>

    <connection from="bottom" to="right" fromLane="0" toLane="0" via=":right_0_0" dir="s" state="M"/>
    <connection from="left" to="bottom" fromLane="0" toLane="0" via=":bottom_0_0" dir="s" state="M"/>
    <connection from="right" to="top" fromLane="0" toLane="0" via=":top_0_0" dir="s" state="M"/>
    <connection from="top" to="left" fromLane="0" toLane="0" via=":left_0_0" dir="s" state="M"/>

    <connection from=":bottom_0" to="bottom" fromLane="0" toLane="0" dir="s" state="M"/>
    <connection from=":left_0" to="left" fromLane="0" toLane="0" dir="s" state="M"/>
    <connection from=":right_0" to="right" fromLane="0" toLane="0" dir="s" state="M"/>
    <connection from=":top_0" to="top" fromLane="0" toLane="0" dir="s" state="M"/>

</net>
