<?xml version="1.0" encoding="UTF-8"?>

<!-- generated on Fri Feb 19 18:44:28 2021 by Eclipse SUMO netconvert Version 1.6.0
<configuration xmlns:xsi="http://www.w3.org/2001/XMLSchema-instance" xsi:noNamespaceSchemaLocation="http://sumo.dlr.de/xsd/netconvertConfiguration.xsd">

    <input>
        <node-files value="/Users/vanderbilt/Desktop/Research_2020/Traffic_Attack/flow/flow/core/kernel/network/debug/net/ring_20210219-1844271613781867.947683.nod.xml"/>
        <edge-files value="/Users/vanderbilt/Desktop/Research_2020/Traffic_Attack/flow/flow/core/kernel/network/debug/net/ring_20210219-1844271613781867.947683.edg.xml"/>
        <type-files value="/Users/vanderbilt/Desktop/Research_2020/Traffic_Attack/flow/flow/core/kernel/network/debug/net/ring_20210219-1844271613781867.947683.typ.xml"/>
    </input>

    <output>
        <output-file value="/Users/vanderbilt/Desktop/Research_2020/Traffic_Attack/flow/flow/core/kernel/network/debug/cfg/ring_20210219-1844271613781867.947683.net.xml"/>
    </output>

    <junctions>
        <no-internal-links value="false"/>
        <no-turnarounds value="true"/>
    </junctions>

    <report>
        <aggregate-warnings value="5"/>
    </report>

</configuration>
-->

<net version="1.6" junctionCornerDetail="5" limitTurnSpeed="5.50" xmlns:xsi="http://www.w3.org/2001/XMLSchema-instance" xsi:noNamespaceSchemaLocation="http://sumo.dlr.de/xsd/net_file.xsd">

    <location netOffset="509.30,509.30" convBoundary="0.00,0.00,1018.60,1018.60" origBoundary="-509.30,-509.30,509.30,509.30" projParameter="!"/>

    <type id="edgeType" numLanes="1" speed="30.00"/>

    <edge id=":bottom_0" function="internal">
        <lane id=":bottom_0_0" index="0" speed="30.00" length="0.10" shape="509.27,-1.60 509.33,-1.60"/>
    </edge>
    <edge id=":left_0" function="internal">
        <lane id=":left_0_0" index="0" speed="30.00" length="0.10" shape="-1.60,509.33 -1.60,509.27"/>
    </edge>
    <edge id=":right_0" function="internal">
        <lane id=":right_0_0" index="0" speed="30.00" length="0.10" shape="1020.20,509.27 1020.20,509.33"/>
    </edge>
    <edge id=":top_0" function="internal">
        <lane id=":top_0_0" index="0" speed="30.00" length="0.10" shape="509.33,1020.20 509.27,1020.20"/>
    </edge>

    <edge id="bottom" from="bottom" to="right" priority="-1" type="edgeType" length="800.00" shape="509.30,0.00 529.81,0.42 550.28,1.66 570.69,3.72 591.00,6.60 611.17,10.30 631.18,14.80 650.99,20.11 670.58,26.21 689.90,33.10 708.93,40.76 727.63,49.18 745.98,58.34 763.95,68.24 781.50,78.85 798.61,90.16 815.26,102.15 831.40,114.80 847.03,128.09 862.10,141.99 876.61,156.50 890.51,171.57 903.80,187.20 916.45,203.34 928.44,219.99 939.75,237.10 950.36,254.65 960.26,272.62 969.42,290.97 977.84,309.67 985.50,328.70 992.39,348.02 998.49,367.61 1003.80,387.42 1008.30,407.43 1012.00,427.60 1014.88,447.91 1016.94,468.32 1018.18,488.79 1018.60,509.30">
        <lane id="bottom_0" index="0" speed="30.00" length="800.00" shape="509.33,-1.60 529.87,-1.18 550.41,0.06 570.88,2.13 591.26,5.02 611.49,8.73 631.56,13.25 651.44,18.57 671.09,24.69 690.47,31.60 709.56,39.29 728.32,47.73 746.72,56.92 764.75,66.85 782.36,77.50 799.52,88.84 816.22,100.87 832.41,113.56 848.09,126.89 863.21,140.84 877.76,155.39 891.71,170.51 905.04,186.19 917.73,202.38 929.76,219.08 941.10,236.24 951.75,253.85 961.68,271.88 970.87,290.28 979.31,309.04 987.00,328.13 993.91,347.51 1000.03,367.16 1005.35,387.04 1009.87,407.11 1013.58,427.34 1016.47,447.72 1018.54,468.19 1019.78,488.73 1020.20,509.27"/>
    </edge>
    <edge id="left" from="left" to="bottom" priority="-1" type="edgeType" length="800.00" shape="0.00,509.30 0.42,488.79 1.66,468.32 3.72,447.91 6.60,427.60 10.30,407.43 14.80,387.42 20.11,367.61 26.21,348.02 33.10,328.70 40.76,309.67 49.18,290.97 58.34,272.62 68.24,254.65 78.85,237.10 90.16,219.99 102.15,203.34 114.80,187.20 128.09,171.57 141.99,156.50 156.50,141.99 171.57,128.09 187.20,114.80 203.34,102.15 219.99,90.16 237.10,78.85 254.65,68.24 272.62,58.34 290.97,49.18 309.67,40.76 328.70,33.10 348.02,26.21 367.61,20.11 387.42,14.80 407.43,10.30 427.60,6.60 447.91,3.72 468.32,1.66 488.79,0.42 509.30,0.00">
        <lane id="left_0" index="0" speed="30.00" length="800.00" shape="-1.60,509.27 -1.18,488.73 0.06,468.19 2.13,447.72 5.02,427.34 8.73,407.11 13.25,387.04 18.57,367.16 24.69,347.51 31.60,328.13 39.29,309.04 47.73,290.28 56.92,271.88 66.85,253.85 77.50,236.24 88.84,219.08 100.87,202.38 113.56,186.19 126.89,170.51 140.84,155.39 155.39,140.84 170.51,126.89 186.19,113.56 202.38,100.87 219.08,88.84 236.24,77.50 253.85,66.85 271.88,56.92 290.28,47.73 309.04,39.29 328.13,31.60 347.51,24.69 367.16,18.57 387.04,13.25 407.11,8.73 427.34,5.02 447.72,2.13 468.19,0.06 488.73,-1.18 509.27,-1.60"/>
    </edge>
    <edge id="right" from="right" to="top" priority="-1" type="edgeType" length="800.00" shape="1018.60,509.30 1018.18,529.81 1016.94,550.28 1014.88,570.69 1012.00,591.00 1008.30,611.17 1003.80,631.18 998.49,650.99 992.39,670.58 985.50,689.90 977.84,708.93 969.42,727.63 960.26,745.98 950.36,763.95 939.75,781.50 928.44,798.61 916.45,815.26 903.80,831.40 890.51,847.03 876.61,862.10 862.10,876.61 847.03,890.51 831.40,903.80 815.26,916.45 798.61,928.44 781.50,939.75 763.95,950.36 745.98,960.26 727.63,969.42 708.93,977.84 689.90,985.50 670