<?xml version="1.0" encoding="UTF-8"?>

<!-- generated on Mon Dec 20 12:40:49 2021 by Eclipse SUMO netconvert Version 1.6.0
<configuration xmlns:xsi="http://www.w3.org/2001/XMLSchema-instance" xsi:noNamespaceSchemaLocation="http://sumo.dlr.de/xsd/netconvertConfiguration.xsd">

    <input>
        <node-files value="/Users/vanderbilt/Desktop/Research_2021/Anti-Flow/flow/core/kernel/network/debug/net/ring_no_attack_20211220-1240491640022049.909323.nod.xml"/>
        <edge-files value="/Users/vanderbilt/Desktop/Research_2021/Anti-Flow/flow/core/kernel/network/debug/net/ring_no_attack_20211220-1240491640022049.909323.edg.xml"/>
        <type-files value="/Users/vanderbilt/Desktop/Research_2021/Anti-Flow/flow/core/kernel/network/debug/net/ring_no_attack_20211220-1240491640022049.909323.typ.xml"/>
    </input>

    <output>
        <output-file value="/Users/vanderbilt/Desktop/Research_2021/Anti-Flow/flow/core/kernel/network/debug/cfg/ring_no_attack_20211220-1240491640022049.909323.net.xml"/>
    </output>

    <junctions>
        <no-internal-links value="false"/>
        <no-turnarounds value="true"/>
    </junctions>

    <report>
        <aggregate-warnings value="5"/>
    </report>

</configuration>
-->

<net version="1.6" junctionCornerDetail="5" limitTurnSpeed="5.50" xmlns:xsi="http://www.w3.org/2001/XMLSchema-instance" xsi:noNamespaceSchemaLocation="http://sumo.dlr.de/xsd/net_file.xsd">

    <location netOffset="47.75,47.75" convBoundary="0.00,0.00,95.50,95.50" origBoundary="-47.75,-47.75,47.75,47.75" projParameter="!"/>

    <type id="edgeType" numLanes="1" speed="30.00"/>

    <edge id=":bottom_0" function="internal">
        <lane id=":bottom_0_0" index="0" speed="30.00" length="0.10" shape="47.72,-1.60 47.78,-1.60"/>
    </edge>
    <edge id=":left_0" function="internal">
        <lane id=":left_0_0" index="0" speed="30.00" length="0.10" shape="-1.60,47.78 -1.60,47.72"/>
    </edge>
    <edge id=":right_0" function="internal">
        <lane id=":right_0_0" index="0" speed="30.00" length="0.10" shape="97.10,47.72 97.10,47.78"/>
    </edge>
    <edge id=":top_0" function="internal">
        <lane id=":top_0_0" index="0" speed="30.00" length="0.10" shape="47.78,97.10 47.72,97.10"/>
    </edge>

    <edge id="bottom" from="bottom" to="right" priority="-1" type="edgeType" length="75.00" shape="47.75,0.00 49.67,0.04 51.59,0.16 53.51,0.35 55.41,0.62 57.30,0.97 59.18,1.39 61.03,1.89 62.87,2.46 64.68,3.11 66.47,3.82 68.22,4.61 69.94,5.47 71.62,6.40 73.27,7.40 74.87,8.46 76.43,9.58 77.95,10.77 79.41,12.01 80.83,13.32 82.18,14.67 83.49,16.09 84.73,17.55 85.92,19.07 87.04,20.63 88.10,22.23 89.10,23.88 90.03,25.56 90.89,27.28 91.68,29.03 92.39,30.82 93.04,32.63 93.61,34.47 94.11,36.32 94.53,38.20 94.88,40.09 95.15,41.99 95.34,43.91 95.46,45.83 95.50,47.75">
        <lane id="bottom_0" index="0" speed="30.00" length="75.00" shape="47.78,-1.60 49.74,-1.56 51.72,-1.43 53.70,-1.24 55.67,-0.96 57.62,-0.60 59.56,-0.16 61.48,0.35 63.38,0.94 65.25,1.61 67.09,2.35 68.91,3.17 70.69,4.05 72.42,5.02 74.13,6.05 75.78,7.14 77.39,8.30 78.96,9.53 80.47,10.81 81.94,12.17 83.33,13.56 84.69,15.03 85.97,16.54 87.20,18.11 88.36,19.72 89.45,21.37 90.48,23.08 91.45,24.81 92.33,26.59 93.15,28.41 93.89,30.25 94.56,32.12 95.15,34.02 95.66,35.94 96.10,37.88 96.46,39.83 96.74,41.80 96.93,43.78 97.06,45.76 97.10,47.72"/>
    </edge>
    <edge id="left" from="left" to="bottom" priority="-1" type="edgeType" length="75.00" shape="0.00,47.75 0.04,45.83 0.16,43.91 0.35,41.99 0.62,40.09 0.97,38.20 1.39,36.32 1.89,34.47 2.46,32.63 3.11,30.82 3.82,29.03 4.61,27.28 5.47,25.56 6.40,23.88 7.40,22.23 8.46,20.63 9.58,19.07 10.77,17.55 12.01,16.09 13.32,14.67 14.67,13.32 16.09,12.01 17.55,10.77 19.07,9.58 20.63,8.46 22.23,7.40 23.88,6.40 25.56,5.47 27.28,4.61 29.03,3.82 30.82,3.11 32.63,2.46 34.47,1.89 36.32,1.39 38.20,0.97 40.09,0.62 41.99,0.35 43.91,0.16 45.83,0.04 47.75,0.00">
        <lane id="left_0" index="0" speed="30.00" length="75.00" shape="-1.60,47.72 -1.56,45.76 -1.43,43.78 -1.24,41.80 -0.96,39.83 -0.60,37.88 -0.16,35.94 0.35,34.02 0.94,32.12 1.61,30.25 2.35,28.41 3.17,26.59 4.05,24.81 5.02,23.08 6.05,21.37 7.14,19.72 8.30,18.11 9.53,16.54 10.81,15.03 12.17,13.56 13.56,12.17 15.03,10.81 16.54,9.53 18.11,8.30 19.72,7.14 21.37,6.05 23.08,5.02 24.81,4.05 26.59,3.17 28.41,2.35 30.25,1.61 32.12,0.94 34.02,0.35 35.94,-0.16 37.88,-0.60 39.83,-0.96 41.80,-1.24 43.78,-1.43 45.76,-1.56 47.72,-1.60"/>
    </edge>
    <edge id="right" from="right" to="top" priority="-1" type="edgeType" length="75.00" shape="95.50,47.75 95.46,49.67 95.34,51.59 95.15,53.51 94.88,55.41 94.53,57.30 94.11,59.18 93.61,61.03 93.04,62.87 92.39,64.68 91.68,66.47 90.89,68.22 90.03,69.94 89.10,71.62 88.10,73.27 87.04,74.87 85.92,76.43 84.73,77.95 83.49,79.41 82.18,80.83 80.83,82.18 79.41,83.49 77.95,84.73 76.43,85.92 74.87,87.04 73.27,88.10 71.62,89.10 69.94,90.03 68.22,90.89 66.47,91.68 64.68,92.39 62.87,93.04 61.03,93.61 59.18,94.11 57.30,94.53 55.41,94.88 53.51,95.15 51.59,95.34 49.67,95.46 47.75,95.50">
        <lane id="right_0" index="0" speed="30.00" length="75.00" shape="97.10,47.78 97.06,49.74 96.93,51.72 96.74,53.70 96.46,55.67 96.10,57.62 95.66,59.56 95.15,61.48 94.56,63.38 93.89,65.25 93.15,67.09 92.33,68.91 91.45,70.69 90.48,72.42 89.45,74.13 88.36,75.78 87.20,77.39 85.97,78.96 84.69,80.47 83.33,81.94 81.94,83.33 80.47,84.69 78.96,85.97 77.39,87.20 75.78,88.36 74.13,89.45 72.42,90.48 70.69,91.45 68.91,92.33 67.09,93.15 65.25,93.89 63.38,94.56 61.48,95.15 59.56,95.66 57.62,96.10 55.67,96.46 53.70,96.74 51.72,96.93 49.74,97.06 47.78,97.10"/>
    </edge>
    <edge id="top" from="top" to="left" priority="-1" type="edgeType" length="75.00" shape="47.75,95.50 45.83,95.46 43.91,95.34 41.99,95.15 40.09,94.88 38.20,94.53 36.32,94.11 34.47,93.61 32.63,93.04 30.82,92.39 29.03,91.68 27.28,90.89 25.56,90.03 23.88,89.10 22.23,88.10 20.63,87.04 19.07,85.92 17.55,84.73 16.09,83.49 14.67,82.18 13.32,80.83 12.01,79.41 10.77,77.95 9.58,76.43 8.46,74.87 7.40,73.27 6.40,71.62 5.47,69.94 4.61,68.22 3.82,66.47 3.11,64.68 2.46,62.87 1.89,61.03 1.39,59.18 0.97,57.30 0.62,55.41 0.35,53.51 0.16,51.59 0.04,49.67 0.00,47.75">
        <lane id="top_0" index="0" speed="30.00" length="75.00" shape="47.72,97.10 45.76,97.06 43.78,96.93 41.80,96.74 39.83,96.46 37.88,96.10 35.94,95.66 34.02,95.15 32.12,94.56 30.25,93.89 28.41,93.15 26.59,92.33 24.81,91.45 23.08,90.48 21.37,89.45 19.72,88.36 18.11,87.20 16.54,85.97 15.03,84.69 13.56,83.33 12.17,81.94 10.81,80.47 9.53,78.96 8.30,77.39 7.14,75.78 6.05,74.13 5.02,72.42 4.05,70.69 3.17,68.91 2.35,67.09 1.61,65.25 0.94,63.38 0.35,61.48 -0.16,59.56 -0.60,57.62 -0.96,55.67 -1.24,53.70 -1.43,51.72 -1.56,49.74 -1.60,47.78"/>
    </edge>

    <junction id="bottom" type="priority" x="47.75" y="0.00" incLanes="left_0" intLanes=":bottom_0_0" shape="47.82,0.00 47.89,-3.20 47.61,-3.20 47.68,0.00">
        <request index="0" response="0" foes="0" cont="0"/>
    </junction>
    <junction id="left" type="priority" x="0.00" y="47.75" incLanes="top_0" intLanes=":left_0_0" shape="-3.20,47.89 0.00,47.82 0.00,47.68 -3.20,47.61">
        <request index="0" response="0" foes="0" cont="0"/>
    </junction>
    <junction id="right" type="priority" x="95.50" y="47.75" incLanes="bottom_0" intLanes=":right_0_0" shape="98.70,47.61 95.50,47.68 95.50,47.82 98.70,47.89">
        <request index="0" response="0" foes="0" cont="0"/>
    </junction>
    <junction id="top" type="priority" x="47.75" y="95.50" incLanes="right_0" intLanes=":top_0_0" shape="47.89,98.70 47.82,95.50 47.68,95.50 47.61,98.70">
        <request index="0" response="0" foes="0" cont="0"/>
    </junction>

    <connection from="bottom" to="right" fromLane="0" toLane="0" via=":right_0_0" dir="s" state="M"/>
    <connection from="left" to="bottom" fromLane="0" toLane="0" via=":bottom_0_0" dir="s" state="M"/>
    <connection from="right" to="top" fromLane="0" toLane="0" via=":top_0_0" dir="s" state="M"/>
    <connection from="top" to="left" fromLane="0" toLane="0" via=":left_0_0" dir="s" state="M"/>

    <connection from=":bottom_0" to="bottom" fromLane="0" toLane="0" dir="s" state="M"/>
    <connection from=":left_0" to="left" fromLane="0" toLane="0" dir="s" state="M"/>
    <connection from=":right_0" to="right" fromLane="0" toLane="0" dir="s" state="M"/>
    <connection from=":top_0" to="top" fromLane="0" toLane="0" dir="s" state="M"/>

</net>
