<?xml version="1.0" encoding="UTF-8"?>

<!-- generated on Mon Nov  1 15:39:07 2021 by Eclipse SUMO netconvert Version 1.6.0
<configuration xmlns:xsi="http://www.w3.org/2001/XMLSchema-instance" xsi:noNamespaceSchemaLocation="http://sumo.dlr.de/xsd/netconvertConfiguration.xsd">

    <input>
        <node-files value="/Users/vanderbilt/Desktop/Research_2020/Traffic_Attack/flow/flow/core/kernel/network/debug/net/ring_20211101-1539061635799146.3352919.nod.xml"/>
        <edge-files value="/Users/vanderbilt/Desktop/Research_2020/Traffic_Attack/flow/flow/core/kernel/network/debug/net/ring_20211101-1539061635799146.3352919.edg.xml"/>
        <type-files value="/Users/vanderbilt/Desktop/Research_2020/Traffic_Attack/flow/flow/core/kernel/network/debug/net/ring_20211101-1539061635799146.3352919.typ.xml"/>
    </input>

    <output>
        <output-file value="/Users/vanderbilt/Desktop/Research_2020/Traffic_Attack/flow/flow/core/kernel/network/debug/cfg/ring_20211101-1539061635799146.3352919.net.xml"/>
    </output>

    <junctions>
        <no-internal-links value="false"/>
        <no-turnarounds value="true"/>
    </junctions>

    <report>
        <aggregate-warnings value="5"/>
    </report>

</configuration>
-->

<net version="1.6" junctionCornerDetail="5" limitTurnSpeed="5.50" xmlns:xsi="http://www.w3.org/2001/XMLSchema-instance" xsi:noNamespaceSchemaLocation="http://sumo.dlr.de/xsd/net_file.xsd">

    <location netOffset="286.48,286.48" convBoundary="0.00,0.00,572.96,572.96" origBoundary="-286.48,-286.48,286.48,286.48" projParameter="!"/>

    <type id="edgeType" numLanes="1" speed="30.00"/>

    <edge id=":bottom_0" function="internal">
        <lane id=":bottom_0_0" index="0" speed="30.00" length="0.10" shape="286.45,-1.60 286.51,-1.60"/>
    </edge>
    <edge id=":left_0" function="internal">
        <lane id=":left_0_0" index="0" speed="30.00" length="0.10" shape="-1.60,286.51 -1.60,286.45"/>
    </edge>
    <edge id=":right_0" function="internal">
        <lane id=":right_0_0" index="0" speed="30.00" length="0.10" shape="574.56,286.45 574.56,286.51"/>
    </edge>
    <edge id=":top_0" function="internal">
        <lane id=":top_0_0" index="0" speed="30.00" length="0.10" shape="286.51,574.56 286.45,574.56"/>
    </edge>

    <edge id="bottom" from="bottom" to="right" priority="-1" type="edgeType" length="450.00" shape="286.48,0.00 298.02,0.23 309.53,0.93 321.01,2.09 332.43,3.71 343.78,5.79 355.04,8.33 366.18,11.31 377.20,14.74 388.07,18.62 398.77,22.93 409.29,27.66 419.61,32.82 429.72,38.38 439.59,44.35 449.22,50.71 458.58,57.46 467.66,64.57 476.45,72.05 484.93,79.87 493.09,88.03 500.91,96.51 508.39,105.30 515.50,114.38 522.25,123.74 528.61,133.37 534.58,143.24 540.14,153.35 545.30,163.67 550.03,174.19 554.34,184.89 558.22,195.76 561.65,206.78 564.63,217.92 567.17,229.18 569.25,240.53 570.87,251.95 572.03,263.43 572.73,274.94 572.96,286.48">
        <lane id="bottom_0" index="0" speed="30.00" length="450.00" shape="286.51,-1.60 298.08,-1.37 309.66,-0.67 321.20,0.50 332.69,2.13 344.10,4.22 355.42,6.78 366.62,9.77 377.71,13.22 388.64,17.12 399.40,21.46 409.98,26.21 420.35,31.40 430.52,36.99 440.45,43.00 450.13,49.39 459.54,56.18 468.67,63.33 477.51,70.85 486.04,78.72 494.24,86.92 502.11,95.45 509.63,104.29 516.78,113.42 523.57,122.83 529.96,132.51 535.97,142.44 541.56,152.61 546.75,162.98 551.50,173.56 555.84,184.32 559.74,195.25 563.19,206.34 566.18,217.54 568.74,228.86 570.83,240.27 572.46,251.76 573.63,263.30 574.33,274.88 574.56,286.45"/>
    </edge>
    <edge id="left" from="left" to="bottom" priority="-1" type="edgeType" length="450.00" shape="0.00,286.48 0.23,274.94 0.93,263.43 2.09,251.95 3.71,240.53 5.79,229.18 8.33,217.92 11.31,206.78 14.74,195.76 18.62,184.89 22.93,174.19 27.66,163.67 32.82,153.35 38.38,143.24 44.35,133.37 50.71,123.74 57.46,114.38 64.57,105.30 72.05,96.51 79.87,88.03 88.03,79.87 96.51,72.05 105.30,64.57 114.38,57.46 123.74,50.71 133.37,44.35 143.24,38.38 153.35,32.82 163.67,27.66 174.19,22.93 184.89,18.62 195.76,14.74 206.78,11.31 217.92,8.33 229.18,5.79 240.53,3.71 251.95,2.09 263.43,0.93 274.94,0.23 286.48,0.00">
        <lane id="left_0" index="0" speed="30.00" length="450.00" shape="-1.60,286.45 -1.37,274.88 -0.67,263.30 0.50,251.76 2.13,240.27 4.22,228.86 6.78,217.54 9.77,206.34 13.22,195.25 17.12,184.32 21.46,173.56 26.21,162.98 31.40,152.61 36.99,142.44 43.00,132.51 49.39,122.83 56.18,113.42 63.33,104.29 70.85,95.45 78.72,86.92 86.92,78.72 95.45,70.85 104.29,63.33 113.42,56.18 122.83,49.39 132.51,43.00 142.44,36.99 152.61,31.40 162.98,26.21 173.56,21.46 184.32,17.12 195.25,13.22 206.34,9.77 217.54,6.78 228.86,4.22 240.27,2.13 251.76,0.50 263.30,-0.67 274.88,-1.37 286.45,-1.60"/>
    </edge>
    <edge id="right" from="right" to="top" priority="-1" type="edgeType" length="450.00" shape="572.96,286.48 572.73,298.02 572.03,309.53 570.87,321.01 569.25,332.43 567.17,343.78 564.63,355.04 561.65,366.18 558.22,377.20 554.34,388.07 550.03,398.77 545.30,409.29 540.14,419.61 534.58,429.72 528.61,439.59 522.25,449.22 515.50,458.58 508.39,467.66 500.91,476.45 493.09,484.93 484.93,493.09 476.45,500.91 467.66,508.39 458.58,515.50 449.22,522.25 439.59,528.61 429.72,534.58 419.61,540.14 409.29,545.30 398.77,550.03 388.07,554.34 377.20,558.22 366.18,561.65 355.04,564.63 343.78,567.17 332.43,569.25 321.01,570.87 309.53,572.03 298.02,572.73 286.48,572.96">
        <lane id="right_0" index="0" speed="30.00" length="450.00" shape="574.56,286.51 574.33,298.08 573.63,309.66 572.46,321.20 570.83,332.69 568.74,344.10 566.18,355.42 563.19,366.62 559.74,377.71 555.84,388.64 551.50,399.40 546.75,409.98 541.56,420.35 535.97,430.52 529.96,440.45 523.57,450.13 516.78,459.54 509.63,468.67 502.11,477.51 494.24,486.04 486.04,494.24 477.51,502.11 468.67,509.63 459.54,516.78 450.13,523.57 440.45,529.96 430.52,535.97 420.35,541.56 409.98,546.75 399.40,551.50 388.64,555.84 377.71,559.74 366.62,563.19 355.42,566.18 344.10,568.74 332.69,570.83 321.20,572.46 309.66,573.63 298.08,574.33 286.51,574.56"/>
    </edge>
    <edge id="top" from="top" to="left" priority="-1" type="edgeType" length="450.00" shape="286.48,572.96 274.94,572.73 263.43,572.03 251.95,570.87 240.53,569.25 229.18,567.17 217.92,564.63 206.78,561.65 195.76,558.22 184.89,554.34 174.19,550.03 163.67,545.30 153.35,540.14 143.24,534.58 133.37,528.61 123.74,522.25 114.38,515.50 105.30,508.39 96.51,500.91 88.03,493.09 79.87,484.93 72.05,476.45 64.57,467.66 57.46,458.58 50.71,449.22 44.35,439.59 38.38,429.72 32.82,419.61 27.66,409.29 22.93,398.77 18.62,388.07 14.74,377.20 11.31,366.18 8.33,355.04 5.79,343.78 3.71,332.43 2.09,321.01 0.93,309.53 0.23,298.02 0.00,286.48">
        <lane id="top_0" index="0" speed="30.00" length="450.00" shape="286.45,574.56 274.88,574.33 263.30,573.63 251.76,572.46 240.27,570.83 228.86,568.74 217.54,566.18 206.34,563.19 195.25,559.74 184.32,555.84 173.56,551.50 162.98,546.75 152.61,541.56 142.44,535.97 132.51,529.96 122.83,523.57 113.42,516.78 104.29,509.63 95.45,502.11 86.92,494.24 78.72,486.04 70.85,477.51 63.33,468.67 56.18,459.54 49.39,450.13 43.00,440.45 36.99,430.52 31.40,420.35 26.21,409.98 21.46,399.40 17.12,388.64 13.22,377.71 9.77,366.62 6.78,355.42 4.22,344.10 2.13,332.69 0.50,321.20 -0.67,309.66 -1.37,298.08 -1.60,286.51"/>
    </edge>

    <junction id="bottom" type="priority" x="286.48" y="0.00" incLanes="left_0" intLanes=":bottom_0_0" shape="286.56,0.00 286.62,-3.20 286.34,-3.20 286.40,0.00">
        <request index="0" response="0" foes="0" cont="0"/>
    </junction>
    <junction id="left" type="priority" x="0.00" y="286.48" incLanes="top_0" intLanes=":left_0_0" shape="-3.20,286.62 0.00,286.56 0.00,286.40 -3.20,286.34">
        <request index="0" response="0" foes="0" cont="0"/>
    </junction>
    <junction id="right" type="priority" x="572.96" y="286.48" incLanes="bottom_0" intLanes=":right_0_0" shape="576.16,286.34 572.96,286.40 572.96,286.56 576.16,286.62">
        <request index="0" response="0" foes="0" cont="0"/>
    </junction>
    <junction id="top" type="priority" x="286.48" y="572.96" incLanes="right_0" intLanes=":top_0_0" shape="286.62,576.16 286.56,572.96 286.40,572.96 286.34,576.16">
        <request index="0" response="0" foes="0" cont="0"/>
    </junction>

    <connection from="bottom" to="right" fromLane="0" toLane="0" via=":right_0_0" dir="s" state="M"/>
    <connection from="left" to="bottom" fromLane="0" toLane="0" via=":bottom_0_0" dir="s" state="M"/>
    <connection from="right" to="top" fromLane="0" toLane="0" via=":top_0_0" dir="s" state="M"/>
    <connection from="top" to="left" fromLane="0" toLane="0" via=":left_0_0" dir="s" state="M"/>

    <connection from=":bottom_0" to="bottom" fromLane="0" toLane="0" dir="s" state="M"/>
    <connection from=":left_0" to="left" fromLane="0" toLane="0" dir="s" state="M"/>
    <connection from=":right_0" to="right" fromLane="0" toLane="0" dir="s" state="M"/>
    <connection from=":top_0" to="top" fromLane="0" toLane="0" dir="s" state="M"/>

</net>
