<?xml version='1.0' encoding='UTF-8'?>
<configuration xmlns:xsi="http://www.w3.org/2001/XMLSchema-instance" xsi:noNamespaceSchemaLocation="http://sumo.dlr.de/xsd/sumoConfiguration.xsd">
  <input>
    <net-file value="ring_no_attack_20211220-1240491640022049.909323.net.xml"/>
    <route-files value="ring_no_attack_20211220-1240491640022049.909323.rou.xml"/>
    <additional-files value="ring_no_attack_20211220-1240491640022049.909323.add.xml"/>
    <gui-settings-file value="ring_no_attack_20211220-1240491640022049.909323.gui.cfg"/>
  </input>
  <time>
    <begin value="0"/>
  </time>
</configuration>
