<?xml version="1.0" encoding="UTF-8"?>

<!-- generated on Fri Feb 19 18:44:17 2021 by Eclipse SUMO netconvert Version 1.6.0
<configuration xmlns:xsi="http://www.w3.org/2001/XMLSchema-instance" xsi:noNamespaceSchemaLocation="http://sumo.dlr.de/xsd/netconvertConfiguration.xsd">

