<?xml version='1.0' encoding='UTF-8'?>
<edges xmlns:xsi="http://www.w3.org/2001/XMLSchema-instance" xsi:noNamespaceSchemaLocation="http://sumo.dlr.de/xsd/edges_file.xsd">
  <edge id="bottom" type="edgeType" from="bottom" to="right" length="75.0" shape="0.00,-47.75 1.92,-47.71 3.84,-47.59 5.76,-47.40 7.66,-47.13 9.55,-46.78 11.43,-46.36 13.28,-45.86 15.12,-45.29 16.93,-44.64 18.72,-43.93 20.47,-43.14 22.19,-42.28 23.87,-41.35 25.52,-40.35 27.12,-39.29 28.68,-38.17 30.20,-36.98 31.66,-35.74 33.08,-34.43 34.43,-33.08 35.74,-31.66 36.98,-30.20 38.17,-28.68 39.29,-27.12 40.35,-25.52 41.35,-23.87 42.28,-22.19 43.14,-20.47 43.93,-18.72 44.64,-16.93 45.29,-15.12 45.86,-13.28 46.36,-11.43 46.78,-9.55 47.13,-7.66 47.40,-5.76 47.59,-3.84 47.71,-1.92 47.75,0.00"/>
  <edge id="right" type="edgeType" from="right" to="top" length="75.0" shape="47.75,0.00 47.71,1.92 47.59,3.84 47.40,5.76 47.13,7.66 46.78,9.55 46.36,11.43 45.86,13.28 45.29,15.12 44.64,16.93 43.93,18.72 43.14,20.47 42.28,22.19 41.35,23.87 40.35,25.52 39.29,27.12 38.17,28.68 36.98,30.20 35.74,31.66 34.43,33.08 33.08,34.43 31.66,35.74 30.20,36.98 28.68,38.17 27.12,39.29 25.52,40.35 23.87,41.35 22.19,42.28 20.47,43.14 18.72,43.93 16.93,44.64 15.12,45.29 13.28,45.86 11.43,46.36 9.55,46.78 7.66,47.13 5.76,47.40 3.84,47.59 1.92,47.71 0.00,47.75"/>
  <edge id="top" type="edgeType" from="top" to="left" length="75.0" shape="0.00,47.75 -1.92,47.71 -3.84,47.59 -5.76,47.40 -7.66,47.13 -9.55,46.78 -11.43,46.36 -13.28,45.86 -15.12,45.29 -16.93,44.64 -18.72,43.93 -20.47,43.14 -22.19,42.28 -23.87,41.35 -25.52,40.35 -27.12,39.29 -28.68,38.17 -30.20,36.98 -31.66,35.74 -33.08,34.43 -34.43,33.08 -35.74,31.66 -36.98,30.20 -38.17,28.68 -39.29,27.12 -40.35,25.52 -41.35,23.87 -42.28,22.19 -43.14,20.47 -43.93,18.72 -44.64,16.93 -45.29,15.12 -45.86,13.28 -46.36,11.43 -46.78,9.55 -47.13,7.66 -47.40,5.76 -47.59,3.84 -47.71,1.92 -47.75,0.00"/>
  <edge id="left" type="edgeType" from="left" to="bottom" length="75.0" shape="-47.75,0.00 -47.71,-1.92 -47.59,-3.84 -47.40,-5.76 -47.13,-7.66 -46.78,-9.55 -46.36,-11.43 -45.86,-13.28 -45.29,-15.12 -44.64,-16.93 -43.93,-18.72 -43.14,-20.47 -42.28,-22.19 -41.35,-23.87 -40.35,-25.52 -39.29,-27.12 -38.17,-28.68 -36.98,-30.20 -35.74,-31.66 -34.43,-33.08 -33.08,-34.43 -31.66,-35.74 -30.20,-36.98 -28.68,-38.17 -27.12,-39.29 -25.52,-40.35 -23.87,-41.35 -22.19,-42.28 -20.47,-43.14 -18.72,-43.93 -16.93,-44.64 -15.12,-45.29 -13.28,-45.86 -11.43,-46.36 -9.55,-46.78 -7.66,-47.13 -5.76,-47.40 -3.84,-47.59 -1.92,-47.71 -0.00,-47.75"/>
</edges>
