<?xml version='1.0' encoding='UTF-8'?>
<edges xmlns:xsi="http://www.w3.org/2001/XMLSchema-instance" xsi:noNamespaceSchemaLocation="http://sumo.dlr.de/xsd/edges_file.xsd">
  <edge id="bottom" type="edgeType" from="bottom" to="right" length="850.0" shape="0.00,-541.13 21.79,-540.69 43.54,-539.37 65.23,-537.18 86.80,-534.12 108.24,-530.19 129.50,-525.40 150.55,-519.76 171.36,-513.28 191.89,-505.96 212.10,-497.83 231.98,-488.88 251.47,-479.14 270.56,-468.63 289.21,-457.36 307.40,-445.34 325.08,-432.60 342.23,-419.16 358.83,-405.04 374.85,-390.26 390.26,-374.85 405.04,-358.83 419.16,-342.23 432.60,-325.08 445.34,-307.40 457.36,-289.21 468.63,-270.56 479.14,-251.47 488.88,-231.98 497.83,-212.10 505.96,-191.89 513.28,-171.36 519.76,-150.55 525.40,-129.50 530.19,-108.24 534.12,-86.80 537.18,-65.23 539.37,-43.54 540.69,-21.79 541.13,0.00"/>
  <edge id="right" type="edgeType" from="right" to="top" length="850.0" shape="541.13,0.00 540.69,21.79 539.37,43.54 537.18,65.23 534.12,86.80 530.19,108.24 525.40,129.50 519.76,150.55 513.28,171.36 505.96,191.89 497.83,212.10 488.88,231.98 479.14,251.47 468.63,270.56 457.36,289.21 445.34,307.40 432.60,325.08 419.16,342.23 405.04,358.83 390.26,374.85 374.85,390.26 358.83,405.04 342.23,419.16 325.08,432.60 307.40,445.34 289.21,457.36 270.56,468.63 251.47,479.14 231.98,488.88 212.10,497.83 191.89,505.96 171.36,513.28 150.55,519.76 129.50,525.40 108.24,530.19 86.80,534.12 65.23,537.18 43.54,539.37 21.79,540.69 0.00,541.13"/>
  <edge id="top" type="edgeType" from="top" to="left" length="850.0" shape="0.00,541.13 -21.79,540.69 -43.54,539.37 -65.23,537.18 -86.80,534.12 -108.24,530.19 -129.50,525.40 -150.55,519.76 -171.36,513.28 -191.89,505.96 -212.10,497.83 -231.98,488.88 -251.47,479.14 -270.56,468.63 -289.21,457.36 -307.40,445.34 -325.08,432.60 -342.23,419.16 -358.83,405.04 -374.85,390.26 -390.26,374.85 -405.04,358.83 -419.16,342.23 -432.60,325.08 -445.34,307.40 -457.36,289.21 -468.63,270.56 -479.14,251.47 -488.88,231.98 -497.83,212.10 -505.96,191.89 -513.28,171.36 -519.76,150.55 -525.40,129.50 -530.19,108.24 -534.12,86.80 -537.18,65.23 -539.37,43.54 -540.69,21.79 -541.13,0.00"/>
  <edge id="left" type="edgeType" from="left" to="bottom" length="850.0" shape="-541.13,0.00 -540.69,-21.79 -539.37,-43.54 -537.18,-65.23 -534.12,-86.80 -530.19,-108.24 -525.40,-129.50 -519.76,-150.55 -513.28,-171.36 -505.96,-191.89 -497.83,-212.10 -488.88,-231.98 -479.14,-251.47 -468.63,-270.56 -457.36,-289.21 -445.34,-307.40 -432.60,-325.08 -419.16,-342.23 -405.04,-358.83 -390.26,-374.85 -374.85,-390.26 -358.83,-405.04 -342.23,-419.16 -325.08,-432.60 -307.40,-445.34 -289.21,-457.36 -270.56,-468.63 -251.47,-479.14 -231.98,-488.88 -212.10,-497.83 -191.89,-505.96 -171.36,-513.28 -150.55,-519.76 -129.50,-525.40 -108.24,-530.19 -86.80,-534.12 -65.23,-537.18 -43.54,-539.37 -21.79,-540.69 -0.00,-541.13"/>
</edges>
