<?xml version='1.0' encoding='UTF-8'?>
<edges xmlns:xsi="http://www.w3.org/2001/XMLSchema-instance" xsi:noNamespaceSchemaLocation="http://sumo.dlr.de/xsd/edges_file.xsd">
  <edge id="bottom" type="edgeType" from="bottom" to="right" length="450.0" shape="0.00,-286.48 11.54,-286.25 23.05,-285.55 34.53,-284.39 45.95,-282.77 57.30,-280.69 68.56,-278.15 79.70,-275.17 90.72,-271.74 101.59,-267.86 112.29,-263.55 122.81,-258.82 133.13,-253.66 143.24,-248.10 153.11,-242.13 162.74,-235.77 172.10,-229.02 181.18,-221.91 189.97,-214.43 198.45,-206.61 206.61,-198.45 214.43,-189.97 221.91,-181.18 229.02,-172.10 235.77,-162.74 242.13,-153.11 248.10,-143.24 253.66,-133.13 258.82,-122.81 263.55,-112.29 267.86,-101.59 271.74,-90.72 275.17,-79.70 278.15,-68.56 280.69,-57.30 282.77,-45.95 284.39,-34.53 285.55,-23.05 286.25,-11.54 286.48,0.00"/>
  <edge id="right" type="edgeType" from="right" to="top" length="450.0" shape="286.48,0.00 286.25,11.54 285.55,23.05 284.39,34.53 282.77,45.95 280.69,57.30 278.15,68.56 275.17,79.70 271.74,90.72 267.86,101.59 263.55,112.29 258.82,122.81 253.66,133.13 248.10,143.24 242.13,153.11 235.77,162.74 229.02,172.10 221.91,181.18 214.43,189.97 206.61,198.45 198.45,206.61 189.97,214.43 181.18,221.91 172.10,229.02 162.74,235.77 153.11,242.13 143.24,248.10 133.13,253.66 122.81,258.82 112.29,263.55 101.59,267.86 90.72,271.74 79.70,275.17 68.56,278.15 57.30,280.69 45.95,282.77 34.53,284.39 23.05,285.55 11.54,286.25 0.00,286.48"/>
  <edge id="top" type="edgeType" from="top" to="left" length="450.0" shape="0.00,286.48 -11.54,286.25 -23.05,285.55 -34.53,284.39 -45.95,282.77 -57.30,280.69 -68.56,278.15 -79.70,275.17 -90.72,271.74 -101.59,267.86 -112.29,263.55 -122.81,258.82 -133.13,253.66 -143.24,248.10 -153.11,242.13 -162.74,235.77 -172.10,229.02 -181.18,221.91 -189.97,214.43 -198.45,206.61 -206.61,198.45 -214.43,189.97 -221.91,181.18 -229.02,172.10 -235.77,162.74 -242.13,153.11 -248.10,143.24 -253.66,133.13 -258.82,122.81 -263.55,112.29 -267.86,101.59 -271.74,90.72 -275.17,79.70 -278.15,68.56 -280.69,57.30 -282.77,45.95 -284.39,34.53 -285.55,23.05 -286.25,11.54 -286.48,0.00"/>
  <edge id="left" type="edgeType" from="left" to="bottom" length="450.0" shape="-286.48,0.00 -286.25,-11.54 -285.55,-23.05 -284.39,-34.53 -282.77,-45.95 -280.69,-57.30 -278.15,-68.56 -275.17,-79.70 -271.74,-90.72 -267.86,-101.59 -263.55,-112.29 -258.82,-122.81 -253.66,-133.13 -248.10,-143.24 -242.13,-153.11 -235.77,-162.74 -229.02,-172.10 -221.91,-181.18 -214.43,-189.97 -206.61,-198.45 -198.45,-206.61 -189.97,-214.43 -181.18,-221.91 -172.10,-229.02 -162.74,-235.77 -153.11,-242.13 -143.24,-248.10 -133.13,-253.66 -122.81,-258.82 -112.29,-263.55 -101.59,-267.86 -90.72,-271.74 -79.70,-275.17 -68.56,-278.15 -57.30,-280.69 -45.95,-282.77 -34.53,-284.39 -23.05,-285.55 -11.54,-286.25 -0.00,-286.48"/>
</edges>
