<?xml version='1.0' encoding='UTF-8'?>
<edges xmlns:xsi="http://www.w3.org/2001/XMLSchema-instance" xsi:noNamespaceSchemaLocation="http://sumo.dlr.de/xsd/edges_file.xsd">
  <edge id="bottom" type="edgeType" from="bottom" to="right" length="800.0" shape="0.00,-509.30 20.51,-508.88 40.98,-507.64 61.39,-505.58 81.70,-502.70 101.87,-499.00 121.88,-494.50 141.69,-489.19 161.28,-483.09 180.60,-476.20 199.63,-468.54 218.33,-460.12 236.68,-450.96 254.65,-441.06 272.20,-430.45 289.31,-419.14 305.96,-407.15 322.10,-394.50 337.73,-381.21 352.80,-367.31 367.31,-352.80 381.21,-337.73 394.50,-322.10 407.15,-305.96 419.14,-289.31 430.45,-272.20 441.06,-254.65 450.96,-236.68 460.12,-218.33 468.54,-199.63 476.20,-180.60 483.09,-161.28 489.19,-141.69 494.50,-121.88 499.00,-101.87 502.70,-81.70 505.58,-61.39 507.64,-40.98 508.88,-20.51 509.30,0.00"/>
  <edge id="right" type="edgeType" from="right" to="top" length="800.0" shape="509.30,0.00 508.88,20.51 507.64,40.98 505.58,61.39 502.70,81.70 499.00,101.87 494.50,121.88 489.19,141.69 483.09,161.28 476.20,180.60 468.54,199.63 460.12,218.33 450.96,236.68 441.06,254.65 430.45,272.20 419.14,289.31 407.15,305.96 394.50,322.10 381.21,337.73 367.31,352.80 352.80,367.31 337.73,381.21 322.10,394.50 305.96,407.15 289.31,419.14 272.20,430.45 254.65,441.06 236.68,450.96 218.33,460.12 199.63,468.54 180.60,476.20 161.28,483.09 141.69,489.19 121.88,494.50 101.87,499.00 81.70,502.70 61.39,505.58 40.98,507.64 20.51,508.88 0.00,509.30"/>
  <edge id="top" type="edgeType" from="top" to="left" length="800.0" shape="0.00,509.30 -20.51,508.88 -40.98,507.64 -61.39,505.58 -81.70,502.70 -101.87,499.00 -121.88,494.50 -141.69,489.19 -161.28,483.09 -180.60,476.20 -199.63,468.54 -218.33,460.12 -236.68,450.96 -254.65,441.06 -272.20,430.45 -289.31,419.14 -305.96,407.15 -322.10,394.50 -337.73,381.21 -352.80,367.31 -367.31,352.80 -381.21,337.73 -394.50,322.10 -407.15,305.96 -419.14,289.31 -430.45,272.20 -441.06,254.65 -450.96,236.68 -460.12,218.33 -468.54,199.63 -476.20,180.60 -483.09,161.28 -489.19,141.69 -494.50,121.88 -499.00,101.87 -502.70,81.70 -505.58,61.39 -507.64,40.98 -508.88,20.51 -509.30,0.00"/>
  <edge id="left" type="edgeType" from="left" to="bottom" length="800.0" shape="-509.30,0.00 -508.88,-20.51 -507.64,-40.98 -505.58,-61.39 -502.70,-81.70 -499.00,-101.87 -494.50,-121.88 -489.19,-141.69 -483.09,-161.28 -476.20,-180.60 -468.54,-199.63 -460.12,-218.33 -450.96,-236.68 -441.06,-254.65 -430.45,-272.20 -419.14,-289.31 -407.15,-305.96 -394.50,-322.10 -381.21,-337.73 -367.31,-352.80 -352.80,-367.31 -337.73,-381.21 -322.10,-394.50 -305.96,-407.15 -289.31,-419.14 -272.20,-430.45 -254.65,-441.06 -236.68,-450.96 -218.33,-460.12 -199.63,-468.54 -180.60,-476.20 -161.28,-483.09 -141.69,-489.19 -121.88,-494.50 -101.87,-499.00 -81.70,-502.70 -61.39,-505.58 -40.98,-507.64 -20.51,-508.88 -0.00,-509.30"/>
</edges>
