<?xml version='1.0' encoding='UTF-8'?>
<edges xmlns:xsi="http://www.w3.org/2001/XMLSchema-instance" xsi:noNamespaceSchemaLocation="http://sumo.dlr.de/xsd/edges_file.xsd">
  <edge id="bottom" type="edgeType" from="bottom" to="right" length="775.0" shape="0.00,-493.38 19.87,-492.98 39.70,-491.78 59.47,-489.78 79.14,-486.99 98.69,-483.41 118.07,-479.04 137.27,-473.90 156.24,-467.99 174.96,-461.32 193.39,-453.90 211.51,-445.74 229.29,-436.87 246.69,-427.28 263.69,-417.00 280.27,-406.04 296.39,-394.43 312.04,-382.17 327.17,-369.30 341.78,-355.83 355.83,-341.78 369.30,-327.17 382.17,-312.04 394.43,-296.39 406.04,-280.27 417.00,-263.69 427.28,-246.69 436.87,-229.29 445.74,-211.51 453.90,-193.39 461.32,-174.96 467.99,-156.24 473.90,-137.27 479.04,-118.07 483.41,-98.69 486.99,-79.14 489.78,-59.47 491.78,-39.70 492.98,-19.87 493.38,0.00"/>
  <edge id="right" type="edgeType" from="right" to="top" length="775.0" shape="493.38,0.00 492.98,19.87 491.78,39.70 489.78,59.47 486.99,79.14 483.41,98.69 479.04,118.07 473.90,137.27 467.99,156.24 461.32,174.96 453.90,193.39 445.74,211.51 436.87,229.29 427.28,246.69 417.00,263.69 406.04,280.27 394.43,296.39 382.17,312.04 369.30,327.17 355.83,341.78 341.78,355.83 327.17,369.30 312.04,382.17 296.39,394.43 280.27,406.04 263.69,417.00 246.69,427.28 229.29,436.87 211.51,445.74 193.39,453.90 174.96,461.32 156.24,467.99 137.27,473.90 118.07,479.04 98.69,483.41 79.14,486.99 59.47,489.78 39.70,491.78 19.87,492.98 0.00,493.38"/>
  <edge id="top" type="edgeType" from="top" to="left" length="775.0" shape="0.00,493.38 -19.87,492.98 -39.70,491.78 -59.47,489.78 -79.14,486.99 -98.69,483.41 -118.07,479.04 -137.27,473.90 -156.24,467.99 -174.96,461.32 -193.39,453.90 -211.51,445.74 -229.29,436.87 -246.69,427.28 -263.69,417.00 -280.27,406.04 -296.39,394.43 -312.04,382.17 -327.17,369.30 -341.78,355.83 -355.83,341.78 -369.30,327.17 -382.17,312.04 -394.43,296.39 -406.04,280.27 -417.00,263.69 -427.28,246.69 -436.87,229.29 -445.74,211.51 -453.90,193.39 -461.32,174.96 -467.99,156.24 -473.90,137.27 -479.04,118.07 -483.41,98.69 -486.99,79.14 -489.78,59.47 -491.78,39.70 -492.98,19.87 -493.38,0.00"/>
  <edge id="left" type="edgeType" from="left" to="bottom" length="775.0" shape="-493.38,0.00 -492.98,-19.87 -491.78,-39.70 -489.78,-59.47 -486.99,-79.14 -483.41,-98.69 -479.04,-118.07 -473.90,-137.27 -467.99,-156.24 -461.32,-174.96 -453.90,-193.39 -445.74,-211.51 -436.87,-229.29 -427.28,-246.69 -417.00,-263.69 -406.04,-280.27 -394.43,-296.39 -382.17,-312.04 -369.30,-327.17 -355.83,-341.78 -341.78,-355.83 -327.17,-369.30 -312.04,-382.17 -296.39,-394.43 -280.27,-406.04 -263.69,-417.00 -246.69,-427.28 -229.29,-436.87 -211.51,-445.74 -193.39,-453.90 -174.96,-461.32 -156.24,-467.99 -137.27,-473.90 -118.07,-479.04 -98.69,-483.41 -79.14,-486.99 -59.47,-489.78 -39.70,-491.78 -19.87,-492.98 -0.00,-493.38"/>
</edges>
