<?xml version='1.0' encoding='UTF-8'?>
<edges xmlns:xsi="http://www.w3.org/2001/XMLSchema-instance" xsi:noNamespaceSchemaLocation="http://sumo.dlr.de/xsd/edges_file.xsd">
  <edge id="bottom" type="edgeType" from="bottom" to="right" length="825.0" shape="0.00,-525.21 21.15,-524.79 42.26,-523.51 63.31,-521.38 84.25,-518.41 105.06,-514.60 125.69,-509.95 146.12,-504.47 166.32,-498.18 186.24,-491.08 205.87,-483.18 225.15,-474.50 244.08,-465.05 262.61,-454.85 280.71,-443.90 298.35,-432.24 315.52,-419.88 332.17,-406.83 348.28,-393.13 363.83,-378.78 378.78,-363.83 393.13,-348.28 406.83,-332.17 419.88,-315.52 432.24,-298.35 443.90,-280.71 454.85,-262.61 465.05,-244.08 474.50,-225.15 483.18,-205.87 491.08,-186.24 498.18,-166.32 504.47,-146.12 509.95,-125.69 514.60,-105.06 518.41,-84.25 521.38,-63.31 523.51,-42.26 524.79,-21.15 525.21,0.00"/>
  <edge id="right" type="edgeType" from="right" to="top" length="825.0" shape="525.21,0.00 524.79,21.15 523.51,42.26 521.38,63.31 518.41,84.25 514.60,105.06 509.95,125.69 504.47,146.12 498.18,166.32 491.08,186.24 483.18,205.87 474.50,225.15 465.05,244.08 454.85,262.61 443.90,280.71 432.24,298.35 419.88,315.52 406.83,332.17 393.13,348.28 378.78,363.83 363.83,378.78 348.28,393.13 332.17,406.83 315.52,419.88 298.35,432.24 280.71,443.90 262.61,454.85 244.08,465.05 225.15,474.50 205.87,483.18 186.24,491.08 166.32,498.18 146.12,504.47 125.69,509.95 105.06,514.60 84.25,518.41 63.31,521.38 42.26,523.51 21.15,524.79 0.00,525.21"/>
  <edge id="top" type="edgeType" from="top" to="left" length="825.0" shape="0.00,525.21 -21.15,524.79 -42.26,523.51 -63.31,521.38 -84.25,518.41 -105.06,514.60 -125.69,509.95 -146.12,504.47 -166.32,498.18 -186.24,491.08 -205.87,483.18 -225.15,474.50 -244.08,465.05 -262.61,454.85 -280.71,443.90 -298.35,432.24 -315.52,419.88 -332.17,406.83 -348.28,393.13 -363.83,378.78 -378.78,363.83 -393.13,348.28 -406.83,332.17 -419.88,315.52 -432.24,298.35 -443.90,280.71 -454.85,262.61 -465.05,244.08 -474.50,225.15 -483.18,205.87 -491.08,186.24 -498.18,166.32 -504.47,146.12 -509.95,125.69 -514.60,105.06 -518.41,84.25 -521.38,63.31 -523.51,42.26 -524.79,21.15 -525.21,0.00"/>
  <edge id="left" type="edgeType" from="left" to="bottom" length="825.0" shape="-525.21,0.00 -524.79,-21.15 -523.51,-42.26 -521.38,-63.31 -518.41,-84.25 -514.60,-105.06 -509.95,-125.69 -504.47,-146.12 -498.18,-166.32 -491.08,-186.24 -483.18,-205.87 -474.50,-225.15 -465.05,-244.08 -454.85,-262.61 -443.90,-280.71 -432.24,-298.35 -419.88,-315.52 -406.83,-332.17 -393.13,-348.28 -378.78,-363.83 -363.83,-378.78 -348.28,-393.13 -332.17,-406.83 -315.52,-419.88 -298.35,-432.24 -280.71,-443.90 -262.61,-454.85 -244.08,-465.05 -225.15,-474.50 -205.87,-483.18 -186.24,-491.08 -166.32,-498.18 -146.12,-504.47 -125.69,-509.95 -105.06,-514.60 -84.25,-518.41 -63.31,-521.38 -42.26,-523.51 -21.15,-524.79 -0.00,-525.21"/>
</edges>
