<?xml version='1.0' encoding='UTF-8'?>
<configuration xmlns:xsi="http://www.w3.org/2001/XMLSchema-instance" xsi:noNamespaceSchemaLocation="http://sumo.dlr.de/xsd/netconvertConfiguration.xsd">
  <input>
    <node-files value="ring_no_attack_20211220-1240491640022049.909323.nod.xml"/>
    <edge-files value="ring_no_attack_20211220-1240491640022049.909323.edg.xml"/>
    <type-files value="ring_no_attack_20211220-1240491640022049.909323.typ.xml"/>
  </input>
  <output>
    <output-file value="ring_no_attack_20211220-1240491640022049.909323.net.xml"/>
  </output>
  <processing>
    <no-internal-links value="false"/>
    <no-turnarounds value="true"/>
  </processing>
</configuration>
