<?xml version="1.0" encoding="UTF-8"?>

<!-- generated on Wed Oct 14 12:04:28 2020 by Eclipse SUMO netedit Version 1.6.0
<configuration xmlns:xsi="http://www.w3.org/2001/XMLSchema-instance" xsi:noNamespaceSchemaLocation="http://sumo.dlr.de/xsd/netconvertConfiguration.xsd">

    <input>
        <sumo-net-file value="/Users/vanderbilt/Desktop/Research_2020/CIRCLES/Official_Flow/flow/examples/exp_configs/templates/sumo/i24_subnetwork_fix_merges.net.xml"/>
    </input>

    <output>
        <output-file value="/Users/vanderbilt/Desktop/Research_2020/CIRCLES/Official_Flow/flow/examples/exp_configs/templates/sumo/i24_subnetwork_fix_merges.net.xml"/>
    </output>

    <processing>
        <geometry.min-radius.fix.railways value="false"/>
        <geometry.max-grade.fix value="false"/>
        <offset.disable-normalization value="true"/>
        <lefthand value="false"/>
    </processing>

    <junctions>
        <no-turnarounds value="true"/>
        <junctions.corner-detail value="0"/>
        <junctions.limit-turn-speed value="-1"/>
        <rectangular-lane-cut value="false"/>
    </junctions>

    <pedestrian>
        <walkingareas value="false"/>
    </pedestrian>

    <report>
        <aggregate-warnings value="5"/>
    </report>

</configuration>
-->

<net version="1.6" xmlns:xsi="http://www.w3.org/2001/XMLSchema-instance" xsi:noNamespaceSchemaLocation="http://sumo.dlr.de/xsd/net_file.xsd">

    <location netOffset="-523953.70,-3968336.93" convBoundary="2925.77,3890.66,22461.10,24784.71" origBoundary="-86.734568,35.858761,-86.485704,36.081923" projParameter="+proj=utm +zone=16 +ellps=WGS84 +datum=WGS84 +units=m +no_defs"/>

    <type id="highway.bridleway" priority="1" numLanes="1" speed="2.78" allow="pedestrian" oneway="1" width="2.00"/>
    <type id="highway.bus_guideway" priority="1" numLanes="1" speed="8.33" allow="bus" oneway="1"/>
    <type id="highway.cycleway" priority="1" numLanes="1" speed="5.56" allow="bicycle" oneway="0" width="1.00"/>
    <type id="highway.footway" priority="1" numLanes="1" speed="2.78" allow="pedestrian" oneway="1" width="2.00"/>
    <type id="highway.ford" priority="1" numLanes="1" speed="2.78" allow="army" oneway="0"/>
    <type id="highway.living_street" priority="3" numLanes="1" speed="2.78" disallow="tram rail_urban rail rail_electric ship" oneway="0"/>
    <type id="highway.motorway" priority="13" numLanes="2" speed="44.44" allow="private emergency authority army vip passenger hov taxi bus coach delivery truck trailer motorcycle evehicle custom1 custom2" oneway="1"/>
    <type id="highway.motorway_link" priority="12" numLanes="1" speed="22.22" allow="private emergency authority army vip passenger hov taxi bus coach delivery truck trailer motorcycle evehicle custom1 custom2" oneway="1"/>
    <type id="highway.path" priority="1" numLanes="1" speed="2.78" allow="pedestrian bicycle" oneway="1" width="2.00"/>
    <type id="highway.pedestrian" priority="1" numLanes="1" speed="2.78" allow="pedestrian" oneway="1" width="2.00"/>
    <type id="highway.primary" priority="9" numLanes="2" speed="27.78" disallow="tram rail_urban rail rail_electric ship" oneway="0"/>
    <type id="highway.primary_link" priority="8" numLanes="1" speed="22.22" disallow="tram rail_urban rail rail_electric ship" oneway="0"/>
    <type id="highway.raceway" priority="14" numLanes="2" speed="83.33" allow="vip" oneway="0"/>
    <type id="highway.residential" priority="4" numLanes="1" speed="13.89" disallow="tram rail_urban rail rail_electric ship" oneway="0"/>
    <type id="highway.secondary" priority="7" numLanes="2" speed="27.78" disallow="tram rail_urban rail rail_electric ship" oneway="0"/>
    <type id="highway.secondary_link" priority="6" numLanes="1" speed="22.22" disallow="tram rail_urban rail rail_electric ship" oneway="0"/>
    <type id="highway.service" priority="2" numLanes="1" speed="5.56" allow="pedestrian delivery bicycle" oneway="0"/>
    <type id="highway.services" priority="1" numLanes="1" speed="8.33" disallow="tram rail_urban rail rail_electric ship" oneway="0"/>
    <type id="highway.stairs" priority="1" numLanes="1" speed="1.39" allow="pedestrian" oneway="1" width="2.00"/>
    <type id="highway.step" priority="1" numLanes="1" speed="1.39" allow="pedestrian" oneway="1" width="2.00"/>
    <type id="highway.steps" priority="1" numLanes="1" speed="1.39" allow="pedestrian" oneway="1" width="2.00"/>
    <type id="highway.tertiary" priority="6" numLanes="1" speed="22.22" disallow="tram rail_urban rail rail_electric ship" oneway="0"/>
    <type id="highway.tertiary_link" priority="5" numLanes="1" speed="22.22" disallow="tram rail_urban rail rail_electric ship" oneway="0"/>
    <type id="highway.track" priority="1" numLanes="1" speed="5.56" disallow="tram rail_urban rail rail_electric ship" oneway="0"/>
    <type id="highway.trunk" priority="11" numLanes="2" speed="27.78" disallow="pedestrian bicycle tram rail_urban rail rail_electric ship" oneway="0"/>
    <type id="highway.trunk_link" priority="10" numLanes="1" speed="22.22" disallow="pedestrian bicycle tram rail_urban rail rail_electric ship" oneway="0"/>
    <type id="highway.unclassified" priority="5" numLanes="1" speed="13.89" disallow="tram rail_urban rail rail_electric ship" oneway="0"/>
    <type id="highway.unsurfaced" priority="1" numLanes="1" speed="8.33" disallow="tram rail_urban rail rail_electric ship" oneway="0"/>
    <type id="railway.light_rail" priority="15" numLanes="1" speed="27.78" allow="rail_urban" oneway="1"/>
    <type id="railway.preserved" priority="15" numLanes="1" speed="27.78" allow="rail" oneway="1"/>
    <type id="railway.rail" priority="15" numLanes="1" speed="83.33" allow="rail rail_electric" oneway="1"/>
    <type id="railway.subway" priority="15" numLanes="1" speed="27.78" allow="rail_urban" oneway="1"/>
    <type id="railway.tram" priority="15" numLanes="1" speed="13.89" allow="tram" oneway="1"/>

    <edge id=":1241354554_0" function="internal">
        <lane id=":1241354554_0_0" index="0" allow="private emergency authority army vip passenger hov taxi bus coach delivery truck trailer motorcycle evehicle custom1 custom2" speed="25.00" length="9.15" shape="14868.60,13049.02 14866.13,13048.38 14864.02,13048.62 14862.29,13049.74 14860.92,13051.73"/>
    </edge>
    <edge id=":1241354554_1" function="internal">
        <lane id=":1241354554_1_0" index="0" disallow="pedestrian bicycle tram rail_urban rail rail_electric rail_fast ship" speed="27.78" length="11.09" shape="14868.60,13049.02 14858.33,13044.72"/>
        <lane id=":1241354554_1_1" index="1" disallow="pedestrian bicycle tram rail_urban rail rail_electric rail_fast ship" speed="27.78" length="11.09" shape="14869.80,13046.05 14859.60,13041.79"/>
    </edge>
    <edge id=":1241354554_3" function="internal">
        <lane id=":1241354554_3_0" index="0" allow="private emergency authority army vip passenger hov taxi bus coach delivery truck trailer motorcycle evehicle custom1 custom2" speed="22.22" length="14.09" shape="14867.20,13039.12 14860.92,13051.73"/>
    </edge>
    <edge id=":1241354554_4" function="internal">
        <lane id=":1241354554_4_0" index="0" allow="private emergency authority army vip passenger hov taxi bus coach delivery truck trailer motorcycle evehicle custom1 custom2" speed="25.00" length="9.07" shape="14867.20,13039.12 14865.80,13041.12 14864.06,13042.23 14861.99,13042.45 14859.60,13041.79"/>
    </edge>
    <edge id=":1241354682_0" function="internal">
        <lane id=":1241354682_0_0" index="0" allow="private emergency authority army vip passenger hov taxi bus coach delivery truck trailer motorcycle evehicle custom1 custom2" speed="26.75" length="13.77" shape="8102.47,19589.23 8105.36,19587.59 8107.87,19586.12 8110.45,19584.18 8113.51,19581.14"/>
    </edge>
    <edge id=":1241354682_1" function="internal">
        <lane id=":1241354682_1_0" index="0" allow="private emergency authority army vip passenger hov taxi bus coach delivery truck trailer motorcycle evehicle custom1 custom2" speed="31.29" length="14.18" shape="8105.22,19592.57 8108.22,19589.65 8110.55,19587.93 8112.88,19586.21 8115.88,19583.29"/>
        <lane id=":1241354682_1_1" index="1" allow="private emergency authority army vip passenger hov taxi bus coach delivery truck trailer motorcycle evehicle custom1 custom2" speed="31.29" length="14.18" shape="8107.58,19594.72 8110.59,19591.80 8112.92,19590.08 8115.25,19588.36 8118.25,19585.43"/>
        <lane id=":1241354682_1_2" index="2" allow="private emergency authority army vip passenger hov taxi bus coach delivery truck trailer motorcycle evehicle custom1 custom2" speed="31.29" length="14.18" shape="8109.95,19596.88 8112.96,19593.95 8115.29,19592.23 8117.63,19590.51 8120.63,19587.58"/>
        <lane id=":1241354682_1_3" index="3" allow="private emergency authority army vip passenger hov taxi bus coach delivery truck trailer motorcycle evehicle custom1 custom2" speed="31.29" length="14.18" shape="8112.32,19599.03 8115.33,19596.10 8117.66,19594.38 8120.00,19592.66 8123.00,19589.73"/>
    </edge>
    <edge id=":1241354761_0" function="internal">
        <lane id=":1241354761_0_0" index="0" allow="private emergency authority army vip passenger hov taxi bus coach delivery truck trailer motorcycle evehicle custom1 custom2" speed="26.11" length="8.84" shape="6713.88,20617.03 6722.69,20616.48"/>
    </edge>
    <edge id=":1241354761_1" function="internal">
        <lane id=":1241354761_1_0" index="0" allow="private emergency authority army vip passenger hov taxi bus coach delivery truck trailer motorcycle evehicle custom1 custom2" speed="26.11" length="8.75" shape="6715.53,20621.04 6717.19,20619.16 6718.93,20617.77 6720.77,20616.88 6722.69,20616.48"/>
    </edge>
    <edge id=":1241354935_0" function="internal">
        <lane id=":1241354935_0_0" index="0" allow="private emergency authority army vip passenger hov taxi bus coach delivery truck trailer motorcycle evehicle custom1 custom2" speed="22.22" length="0.10" shape="7648.33,20011.17 7648.33,20011.17"/>
    </edge>
    <edge id=":1241355114_0" function="internal">
        <lane id=":1241355114_0_0" index="0" disallow="pedestrian bicycle tram rail_urban rail rail_electric rail_fast ship" speed="27.78" length="0.26" shape="14704.31,12970.75 14704.01,12970.58"/>
        <lane id=":1241355114_0_1" index="1" disallow="pedestrian bicycle tram rail_urban rail rail_electric rail_fast ship" speed="27.78" length="0.26" shape="14705.81,12967.92 14705.64,12967.83"/>
    </edge>
    <edge id=":1241355233_0" function="internal">
        <lane id=":1241355233_0_0" index="0" allow="private emergency authority army vip passenger hov taxi bus coach delivery truck trailer motorcycle evehicle custom1 custom2" speed="22.22" length="0.28" shape="7658.15,20098.96 7658.18,20099.24"/>
    </edge>
    <edge id=":1241355254_0" function="internal">
        <lane id=":1241355254_0_0" index="0" disallow="tram rail_urban rail rail_electric rail_fast ship" speed="27.78" length="0.40" shape="10231.01,17224.19 10230.93,17223.73"/>
        <lane id=":1241355254_0_1" index="1" disallow="tram rail_urban rail rail_electric rail_fast ship" speed="27.78" length="0.40" shape="10234.15,17223.55 10234.09,17223.23"/>
    </edge>
    <edge id=":1241355254_2" function="internal">
        <lane id=":1241355254_2_0" index="0" disallow="tram rail_urban rail rail_electric rail_fast ship" speed="27.78" length="2.34" shape="10234.15,17223.55 10234.69,17222.22 10235.40,17221.67"/>
    </edge>
    <edge id=":1241355254_6" function="internal">
        <lane id=":1241355254_6_0" index="0" disallow="tram rail_urban rail rail_electric rail_fast ship" speed="27.78" length="2.34" shape="10235.40,17221.67 10236.26,17221.90 10237.28,17222.92"/>
    </edge>
    <edge id=":1241355254_3" function="internal">
        <lane id=":1241355254_3_0" index="0" disallow="tram rail_urban rail rail_electric rail_fast ship" speed="27.78" length="0.11" shape="10240.41,17222.24 10240.42,17222.28"/>
        <lane id=":1241355254_3_1" index="1" disallow="tram rail_urban rail rail_electric rail_fast ship" speed="27.78" length="0.11" shape="10237.25,17222.73 10237.28,17222.92"/>
    </edge>
    <edge id=":1241355254_5" function="internal">
        <lane id=":1241355254_5_0" index="0" disallow="tram rail_urban rail rail_electric rail_fast ship" speed="27.78" length="2.34" shape="10237.25,17222.73 10236.65,17224.04 10235.92,17224.56"/>
    </edge>
    <edge id=":1241355254_7" function="internal">
        <lane id=":1241355254_7_0" index="0" disallow="tram rail_urban rail rail_electric rail_fast ship" speed="27.78" length="2.34" shape="10235.92,17224.56 10235.07,17224.29 10234.09,17223.23"/>
    </edge>
    <edge id=":1241355371_0" function="internal">
        <lane id=":1241355371_0_0" index="0" allow="private emergency authority army vip passenger hov taxi bus coach delivery truck trailer motorcycle evehicle custom1 custom2" speed="26.75" length="24.54" shape="18501.96,8251.58 18496.77,8258.00 18493.20,8263.64 18490.70,8268.38 18488.70,8272.14"/>
    </edge>
    <edge id=":1241355371_1" function="internal">
        <lane id=":1241355371_1_0" index="0" allow="private emergency authority army vip passenger hov taxi bus coach delivery truck trailer motorcycle evehicle custom1 custom2" speed="31.29" length="24.53" shape="18501.96,8251.58 18485.51,8269.77"/>
        <lane id=":1241355371_1_1" index="1" allow="private emergency authority army vip passenger hov taxi bus coach delivery truck trailer motorcycle evehicle custom1 custom2" speed="31.29" length="24.53" shape="18499.59,8249.43 18483.14,8267.62"/>
        <lane id=":1241355371_1_2" index="2" allow="private emergency authority army vip passenger hov taxi bus coach delivery truck trailer motorcycle evehicle custom1 custom2" speed="31.29" length="24.53" shape="18497.23,8247.27 18480.77,8265.47"/>
        <lane id=":1241355371_1_3" index="3" allow="private emergency authority army vip passenger hov taxi bus coach delivery truck trailer motorcycle evehicle custom1 custom2" speed="31.29" length="24.53" shape="18494.86,8245.12 18478.40,8263.31"/>
    </edge>
    <edge id=":1241355386_0" function="internal">
        <lane id=":1241355386_0_0" index="0" disallow="pedestrian bicycle tram rail_urban rail rail_electric rail_fast ship" speed="27.78" length="0.24" shape="14635.20,12929.88 14634.89,12929.68"/>
        <lane id=":1241355386_0_1" index="1" disallow="pedestrian bicycle tram rail_urban rail rail_electric rail_fast ship" speed="27.78" length="0.24" shape="14636.83,12927.12 14636.73,12927.06"/>
    </edge>
    <edge id=":1241355409_0" function="internal">
        <lane id=":1241355409_0_0" index="0" allow="private emergency authority army vip passenger hov taxi bus coach delivery truck trailer motorcycle evehicle custom1 custom2" speed="22.22" length="0.29" shape="7567.57,20469.63 7567.45,20469.89"/>
    </edge>
    <edge id=":1241355410_0" function="internal">
        <lane id=":1241355410_0_0" index="0" disallow="pedestrian bicycle tram rail_urban rail rail_electric rail_fast ship" speed="25.00" length="7.06" shape="14529.46,12856.03 14527.91,12854.66 14527.09,12853.44 14526.25,12852.25 14524.67,12850.92"/>
    </edge>
    <edge id=":1241355410_1" function="internal">
        <lane id=":1241355410_1_0" index="0" allow="private emergency authority army vip passenger hov taxi bus coach delivery truck trailer motorcycle evehicle custom1 custom2" speed="25.00" length="5.55" shape="14531.29,12853.41 14530.24,12852.48 14529.49,12851.38 14529.05,12850.10 14528.90,12848.64"/>
    </edge>
    <edge id=":1241355485_0" function="internal">
        <lane id=":1241355485_0_0" index="0" disallow="tram rail_urban rail rail_electric rail_fast ship" speed="27.78" length="0.30" shape="12390.59,15201.04 12390.56,15200.75"/>
        <lane id=":1241355485_0_1" index="1" disallow="tram rail_urban rail rail_electric rail_fast ship" speed="27.78" length="0.30" shape="12393.78,15200.70 12393.74,15200.40"/>
    </edge>
    <edge id=":1241355485_2" function="internal">
        <lane id=":1241355485_2_0" index="0" disallow="tram rail_urban rail rail_electric rail_fast ship" speed="27.78" length="2.34" shape="12393.78,15200.70 12394.44,15199.42 12395.19,15198.94"/>
    </edge>
    <edge id=":1241355485_6" function="internal">
        <lane id=":1241355485_6_0" index="0" disallow="tram rail_urban rail rail_electric rail_fast ship" speed="27.78" length="2.34" shape="12395.19,15198.94 12396.03,15199.25 12396.96,15200.36"/>
    </edge>
    <edge id=":1241355485_3" function="internal">
        <lane id=":1241355485_3_0" index="0" disallow="tram rail_urban rail rail_electric rail_fast ship" speed="27.78" length="0.30" shape="12400.11,15199.71 12400.14,15200.01"/>
        <lane id=":1241355485_3_1" index="1" disallow="tram rail_urban rail rail_electric rail_fast ship" speed="27.78" length="0.30" shape="12396.92,15200.06 12396.96,15200.36"/>
    </edge>
    <edge id=":1241355485_5" function="internal">
        <lane id=":1241355485_5_0" index="0" disallow="tram rail_urban rail rail_electric rail_fast ship" speed="27.78" length="2.34" shape="12396.92,15200.06 12396.26,15201.34 12395.51,15201.82"/>
    </edge>
    <edge id=":1241355485_7" function="internal">
        <lane id=":1241355485_7_0" index="0" disallow="tram rail_urban rail rail_electric rail_fast ship" speed="27.78" length="2.34" shape="12395.51,15201.82 12394.67,15201.51 12393.74,15200.40"/>
    </edge>
    <edge id=":1241356094_0" function="internal">
        <lane id=":1241356094_0_0" index="0" allow="private emergency authority army vip passenger hov taxi bus coach delivery truck trailer motorcycle evehicle custom1 custom2" speed="26.75" length="39.37" shape="12846.34,14792.41 12851.07,14789.64 12858.52,14785.25 12868.08,14779.13 12879.15,14771.14"/>
        <lane id=":1241356094_0_1" index="1" allow="private emergency authority army vip passenger hov taxi bus coach delivery truck trailer motorcycle evehicle custom1 custom2" speed="26.75" length="39.37" shape="12846.34,14792.41 12851.35,14790.05 12859.44,14786.56 12869.67,14781.32 12881.10,14773.68"/>
    </edge>
    <edge id=":1241356094_2" function="internal">
        <lane id=":1241356094_2_0" index="0" allow="private emergency authority army vip passenger hov taxi bus coach delivery truck trailer motorcycle evehicle custom1 custom2" speed="31.29" length="39.11" shape="12848.40,14795.34 12879.15,14771.14"/>
        <lane id=":1241356094_2_1" index="1" allow="private emergency authority army vip passenger hov taxi bus coach delivery truck trailer motorcycle evehicle custom1 custom2" speed="31.29" length="39.11" shape="12850.36,14797.87 12881.10,14773.68"/>
        <lane id=":1241356094_2_2" index="2" allow="private emergency authority army vip passenger hov taxi bus coach delivery truck trailer motorcycle evehicle custom1 custom2" speed="31.29" length="39.11" shape="12852.33,14800.39 12883.06,14776.21"/>
        <lane id=":1241356094_2_3" index="3" allow="private emergency authority army vip passenger hov taxi bus coach delivery truck trailer motorcycle evehicle custom1 custom2" speed="31.29" length="39.11" shape="12854.30,14802.91 12885.01,14778.74"/>
    </edge>
    <edge id=":1241356304_0" function="internal">
        <lane id=":1241356304_0_0" index="0" disallow="tram rail_urban rail rail_electric rail_fast ship" speed="27.78" length="4.67" shape="12355.68,14794.95 12356.36,14793.68 12357.12,14793.21 12357.95,14793.53 12358.86,14794.65"/>
    </edge>
    <edge id=":1241356401_0" function="internal">
        <lane id=":1241356401_0_0" index="0" allow="private emergency authority army vip passenger hov taxi bus coach delivery truck trailer motorcycle evehicle custom1 custom2" speed="26.75" length="23.78" shape="12480.40,15080.52 12486.42,15075.27 12490.77,15070.54 12493.98,15066.47 12496.58,15063.19"/>
    </edge>
    <edge id=":1241356401_1" function="internal">
        <lane id=":1241356401_1_0" index="0" allow="private emergency authority army vip passenger hov taxi bus coach delivery truck trailer motorcycle evehicle custom1 custom2" speed="31.29" length="23.76" shape="12480.40,15080.52 12499.30,15066.09"/>
        <lane id=":1241356401_1_1" index="1" allow="private emergency authority army vip passenger hov taxi bus coach delivery truck trailer motorcycle evehicle custom1 custom2" speed="31.29" length="23.76" shape="12482.36,15083.04 12501.25,15068.62"/>
        <lane id=":1241356401_1_2" index="2" allow="private emergency authority army vip passenger hov taxi bus coach delivery truck trailer motorcycle evehicle custom1 custom2" speed="31.29" length="23.76" shape="12484.33,15085.57 12503.21,15071.16"/>
        <lane id=":1241356401_1_3" index="3" allow="private emergency authority army vip passenger hov taxi bus coach delivery truck trailer motorcycle evehicle custom1 custom2" speed="31.29" length="23.76" shape="12486.29,15088.10 12505.16,15073.70"/>
    </edge>
    <edge id=":1241357374_0" function="internal">
        <lane id=":1241357374_0_0" index="0" disallow="tram rail_urban rail rail_electric rail_fast ship" speed="27.78" length="4.67" shape="6856.27,20768.92 6856.59,20770.33 6856.33,20771.18 6855.49,20771.49 6854.07,20771.24"/>
    </edge>
    <edge id=":1844867707_0" function="internal">
        <lane id=":1844867707_0_0" index="0" allow="private emergency authority army vip passenger hov taxi bus coach delivery truck trailer motorcycle evehicle custom1 custom2" speed="26.75" length="36.84" shape="14692.04,12890.27 14698.28,12879.11 14702.71,12869.46 14705.76,12861.91 14707.89,12857.07"/>
    </edge>
    <edge id=":1844867707_1" function="internal">
        <lane id=":1844867707_1_0" index="0" allow="private emergency authority army vip passenger hov taxi bus coach delivery truck trailer motorcycle evehicle custom1 custom2" speed="31.29" length="36.89" shape="14692.04,12890.27 14710.88,12858.62"/>
        <lane id=":1844867707_1_1" index="1" allow="private emergency authority army vip passenger hov taxi bus coach delivery truck trailer motorcycle evehicle custom1 custom2" speed="31.29" length="36.89" shape="14694.75,12891.97 14713.61,12860.28"/>
        <lane id=":1844867707_1_2" index="2" allow="private emergency authority army vip passenger hov taxi bus coach delivery truck trailer motorcycle evehicle custom1 custom2" speed="31.29" length="36.89" shape="14697.47,12893.66 14716.35,12861.95"/>
        <lane id=":1844867707_1_3" index="3" allow="private emergency authority army vip passenger hov taxi bus coach delivery truck trailer motorcycle evehicle custom1 custom2" speed="31.29" length="36.89" shape="14700.19,12895.35 14719.08,12863.61"/>
    </edge>
    <edge id=":1844867715_0" function="internal">
        <lane id=":1844867715_0_0" index="0" allow="private emergency authority army vip passenger hov taxi bus coach delivery truck trailer motorcycle evehicle custom1 custom2" speed="22.22" length="26.08" shape="14793.49,13136.36 14769.24,13145.93"/>
    </edge>
    <edge id=":1844867715_1" function="internal">
        <lane id=":1844867715_1_0" index="0" allow="private emergency authority army vip passenger hov taxi bus coach delivery truck trailer motorcycle evehicle custom1 custom2" speed="22.22" length="26.07" shape="14792.01,13133.30 14787.29,13136.09 14780.78,13139.95 14774.19,13143.64 14769.24,13145.93"/>
    </edge>
    <edge id=":1844867719_0" function="internal">
        <lane id=":1844867719_0_0" index="0" allow="private emergency authority army vip passenger hov taxi bus coach delivery truck trailer motorcycle evehicle custom1 custom2" speed="26.75" length="30.74" shape="14364.30,13351.34 14370.41,13342.76 14374.74,13335.26 14377.74,13329.19 14379.86,13324.91"/>
    </edge>
    <edge id=":1844867719_1" function="internal">
        <lane id=":1844867719_1_0" index="0" allow="private emergency authority army vip passenger hov taxi bus coach delivery truck trailer motorcycle evehicle custom1 custom2" speed="31.29" length="30.74" shape="14364.30,13351.34 14383.02,13327.01"/>
        <lane id=":1844867719_1_1" index="1" allow="private emergency authority army vip passenger hov taxi bus coach delivery truck trailer motorcycle evehicle custom1 custom2" speed="31.29" length="30.74" shape="14366.81,13353.33 14385.54,13328.98"/>
        <lane id=":1844867719_1_2" index="2" allow="private emergency authority army vip passenger hov taxi bus coach delivery truck trailer motorcycle evehicle custom1 custom2" speed="31.29" length="30.74" shape="14369.31,13355.32 14388.07,13330.95"/>
        <lane id=":1844867719_1_3" index="3" allow="private emergency authority army vip passenger hov taxi bus coach delivery truck trailer motorcycle evehicle custom1 custom2" speed="31.29" length="30.74" shape="14371.82,13357.31 14390.59,13332.92"/>
    </edge>
    <edge id=":1844879372_0" function="internal">
        <lane id=":1844879372_0_0" index="0" allow="private emergency authority army vip passenger hov taxi bus coach delivery truck trailer motorcycle evehicle custom1 custom2" speed="31.29" length="0.30" shape="18549.04,8098.94 18549.26,8098.69"/>
        <lane id=":1844879372_0_1" index="1" allow="private emergency authority army vip passenger hov taxi bus coach delivery truck trailer motorcycle evehicle custom1 custom2" speed="31.29" length="0.30" shape="18551.41,8101.09 18551.62,8100.87"/>
        <lane id=":1844879372_0_2" index="2" allow="private emergency authority army vip passenger hov taxi bus coach delivery truck trailer motorcycle evehicle custom1 custom2" speed="31.29" length="0.30" shape="18553.77,8103.25 18553.97,8103.04"/>
        <lane id=":1844879372_0_3" index="3" allow="private emergency authority army vip passenger hov taxi bus coach delivery truck trailer motorcycle evehicle custom1 custom2" speed="31.29" length="0.30" shape="18556.14,8105.40 18556.32,8105.21"/>
    </edge>
    <edge id=":1844879374_0" function="internal">
        <lane id=":1844879374_0_0" index="0" allow="private emergency authority army vip passenger hov taxi bus coach delivery truck trailer motorcycle evehicle custom1 custom2" speed="31.29" length="0.30" shape="18598.98,8145.87 18598.77,8146.10"/>
        <lane id=":1844879374_0_1" index="1" allow="private emergency authority army vip passenger hov taxi bus coach delivery truck trailer motorcycle evehicle custom1 custom2" speed="31.29" length="0.30" shape="18596.63,8143.70 18596.42,8143.93"/>
        <lane id=":1844879374_0_2" index="2" allow="private emergency authority army vip passenger hov taxi bus coach delivery truck trailer motorcycle evehicle custom1 custom2" speed="31.29" length="0.30" shape="18594.27,8141.54 18594.07,8141.75"/>
        <lane id=":1844879374_0_3" index="3" allow="private emergency authority army vip passenger hov taxi bus coach delivery truck trailer motorcycle evehicle custom1 custom2" speed="31.29" length="0.30" shape="18591.92,8139.37 18591.73,8139.58"/>
    </edge>
    <edge id=":1844879375_0" function="internal">
        <lane id=":1844879375_0_0" index="0" allow="private emergency authority army vip passenger hov taxi bus coach delivery truck trailer motorcycle evehicle custom1 custom2" speed="31.29" length="0.30" shape="18558.16,8189.94 18557.99,8190.13"/>
        <lane id=":1844879375_0_1" index="1" allow="private emergency authority army vip passenger hov taxi bus coach delivery truck trailer motorcycle evehicle custom1 custom2" speed="31.29" length="0.30" shape="18555.81,8187.77 18555.62,8187.98"/>
        <lane id=":1844879375_0_2" index="2" allow="private emergency authority army vip passenger hov taxi bus coach delivery truck trailer motorcycle evehicle custom1 custom2" speed="31.29" length="0.30" shape="18553.47,8185.59 18553.26,8185.82"/>
        <lane id=":1844879375_0_3" index="3" allow="private emergency authority army vip passenger hov taxi bus coach delivery truck trailer motorcycle evehicle custom1 custom2" speed="31.29" length="0.30" shape="18551.12,8183.42 18550.89,8183.67"/>
    </edge>
    <edge id=":1844879378_0" function="internal">
        <lane id=":1844879378_0_0" index="0" allow="private emergency authority army vip passenger hov taxi bus coach delivery truck trailer motorcycle evehicle custom1 custom2" speed="31.29" length="0.30" shape="18279.28,8495.16 18279.09,8495.37"/>
        <lane id=":1844879378_0_1" index="1" allow="private emergency authority army vip passenger hov taxi bus coach delivery truck trailer motorcycle evehicle custom1 custom2" speed="31.29" length="0.30" shape="18276.92,8493.00 18276.72,8493.22"/>
        <lane id=":1844879378_0_2" index="2" allow="private emergency authority army vip passenger hov taxi bus coach delivery truck trailer motorcycle evehicle custom1 custom2" speed="31.29" length="0.30" shape="18274.56,8490.84 18274.35,8491.07"/>
        <lane id=":1844879378_0_3" index="3" allow="private emergency authority army vip passenger hov taxi bus coach delivery truck trailer motorcycle evehicle custom1 custom2" speed="31.29" length="0.30" shape="18272.20,8488.68 18271.99,8488.91"/>
    </edge>
    <edge id=":1844879381_0" function="internal">
        <lane id=":1844879381_0_0" index="0" allow="private emergency authority army vip passenger hov taxi bus coach delivery truck trailer motorcycle evehicle custom1 custom2" speed="26.75" length="27.81" shape="17974.16,8731.62 17980.20,8724.32 17984.65,8718.00 17987.89,8712.84 17990.30,8709.02"/>
    </edge>
    <edge id=":1844879381_1" function="internal">
        <lane id=":1844879381_1_0" index="0" allow="private emergency authority army vip passenger hov taxi bus coach delivery truck trailer motorcycle evehicle custom1 custom2" speed="31.29" length="27.78" shape="17974.16,8731.62 17993.25,8711.37"/>
        <lane id=":1844879381_1_1" index="1" allow="private emergency authority army vip passenger hov taxi bus coach delivery truck trailer motorcycle evehicle custom1 custom2" speed="31.29" length="27.78" shape="17976.54,8733.76 17995.60,8713.53"/>